data_image0
_chemical_formula_structural       Mn12Cu4H276C308N60O72NO3NO3NO3NO3
_chemical_formula_sum              "Mn12 Cu4 H276 C308 N64 O84"
_cell_length_a       12.4161
_cell_length_b       33.388
_cell_length_c       25.692500000000003
_cell_angle_alpha    90.0
_cell_angle_beta     95.47399999999999
_cell_angle_gamma    90.0

_space_group_name_H-M_alt    "P 1"
_space_group_IT_number       1

loop_
  _space_group_symop_operation_xyz
  'x, y, z'

loop_
  _atom_site_type_symbol
  _atom_site_label
  _atom_site_symmetry_multiplicity
  _atom_site_fract_x
  _atom_site_fract_y
  _atom_site_fract_z
  _atom_site_occupancy
  Mn  Mn1       1.0  0.23011  0.93277  0.30042  1.0000
  Mn  Mn2       1.0  0.83588  0.07356  0.20226000000000005  1.0000
  Mn  Mn3       1.0  0.02451  0.0021  0.25268  1.0000
  Mn  Mn4       1.0  0.7698900000000001  0.43277000000000004  0.19958000000000004  1.0000
  Mn  Mn5       1.0  0.16412  0.57356  0.29774  1.0000
  Mn  Mn6       1.0  0.97549  0.5021  0.24732000000000007  1.0000
  Mn  Mn7       1.0  0.7698900000000001  0.06723  0.69958  1.0000
  Mn  Mn8       1.0  0.16412000000000002  0.92644  0.7977400000000002  1.0000
  Mn  Mn9       1.0  0.97549  0.9979  0.74732  1.0000
  Mn  Mn10      1.0  0.23011  0.56723  0.80042  1.0000
  Mn  Mn11      1.0  0.8358800000000001  0.42644  0.7022600000000001  1.0000
  Mn  Mn12      1.0  0.02451  0.4979  0.75268  1.0000
  Cu  Cu1       1.0  0.70666  0.2598  0.37122  1.0000
  Cu  Cu2       1.0  0.29334  0.7598  0.12878  1.0000
  Cu  Cu3       1.0  0.29333999999999993  0.7402  0.62878  1.0000
  Cu  Cu4       1.0  0.70666  0.24019999999999997  0.8712200000000001  1.0000
  H   H1        1.0  0.6957000000000001  0.9486  0.3360000000000001  1.0000
  H   H2        1.0  0.5535  0.0889  0.3832  1.0000
  H   H3        1.0  0.2  0.0412  0.1852  1.0000
  H   H4        1.0  0.38000000000000006  0.0514  0.1757  1.0000
  H   H5        1.0  0.7152  0.8327  0.2911  1.0000
  H   H6        1.0  0.2867000000000001  0.1557  0.3454  1.0000
  H   H7        1.0  0.6701  0.1048  0.9499  1.0000
  H   H8        1.0  0.8952  0.8434  0.2772  1.0000
  H   H9        1.0  0.8782  0.958  0.3263000000000001  1.0000
  H   H10       1.0  0.1879  0.0968  0.3207  1.0000
  H   H11       1.0  0.1514  0.406  0.3154  1.0000
  H   H12       1.0  0.8889000000000001  0.0198  0.1095  1.0000
  H   H13       1.0  0.8807  0.0172  0.04700000000000001  1.0000
  H   H14       1.0  0.9855  0.0365  0.0785  1.0000
  H   H15       1.0  0.2551  0.3507  0.3413  1.0000
  H   H16       1.0  0.3424  0.8259  0.38620000000000004  1.0000
  H   H17       1.0  0.2596  0.8434  0.34  1.0000
  H   H18       1.0  0.5173999999999997  0.7997  0.3638  1.0000
  H   H19       1.0  0.6331  0.8206  0.37550000000000006  1.0000
  H   H20       1.0  0.5419  0.8270000000000001  0.4147  1.0000
  H   H21       1.0  0.7246000000000001  0.1807  0.12280000000000002  1.0000
  H   H22       1.0  0.8066  0.1607  0.1673  1.0000
  H   H23       1.0  0.6162  0.2591  0.4737  1.0000
  H   H24       1.0  0.48940000000000017  0.2563  0.4806  1.0000
  H   H25       1.0  0.3999  0.479  0.3601  1.0000
  H   H26       1.0  0.4959  0.9736  0.2844  1.0000
  H   H27       1.0  0.5643  0.9471  0.2474  1.0000
  H   H28       1.0  0.4354  0.9495  0.2363  1.0000
  H   H29       1.0  0.0743  0.9673999999999999  0.3884  1.0000
  H   H30       1.0  0.08510000000000001  0.9725999999999999  0.45060000000000006  1.0000
  H   H31       1.0  0.1736  0.9919999999999999  0.4169  1.0000
  H   H32       1.0  0.6441  0.0549  0.2669  1.0000
  H   H33       1.0  0.516  0.060500000000000005  0.266  1.0000
  H   H34       1.0  0.5647  0.0324  0.2236  1.0000
  H   H35       1.0  0.3447  0.1702  0.1979  1.0000
  H   H36       1.0  0.1609  0.1609  0.206  1.0000
  H   H37       1.0  0.5385  0.1795  0.0895  1.0000
  H   H38       1.0  0.4283  0.1769  0.1169  1.0000
  H   H39       1.0  0.5253  0.2047  0.1414  1.0000
  H   H40       1.0  0.1333  0.8768  0.6328  1.0000
  H   H41       1.0  0.7124000000000001  0.1764  0.3219  1.0000
  H   H42       1.0  0.6433000000000002  0.1359  0.3224  1.0000
  H   H43       1.0  0.6012  0.1723  0.2853  1.0000
  H   H44       1.0  0.7497  0.1908  0.039900000000000005  1.0000
  H   H45       1.0  0.7536  0.1682  0.9851000000000002  1.0000
  H   H46       1.0  0.6488  0.1644  0.0166  1.0000
  H   H47       1.0  0.17020000000000002  0.8623  0.5471  1.0000
  H   H48       1.0  0.4549  0.030200000000000005  0.3584  1.0000
  H   H49       1.0  0.1757  0.9945  0.6057  1.0000
  H   H50       1.0  0.22660000000000002  0.9805  0.5235  1.0000
  H   H51       1.0  0.5728  0.375  0.30310000000000004  1.0000
  H   H52       1.0  0.6704000000000001  0.3438  0.3127  1.0000
  H   H53       1.0  0.5609  0.3309  0.279  1.0000
  H   H54       1.0  0.976  0.0628  0.9787000000000002  1.0000
  H   H55       1.0  0.5009  0.4245  0.3904  1.0000
  H   H56       1.0  0.4092  0.8402  0.47330000000000005  1.0000
  H   H57       1.0  0.3544000000000001  0.8545  0.5241000000000001  1.0000
  H   H58       1.0  0.29660000000000003  0.8211  0.4864000000000001  1.0000
  H   H59       1.0  0.6729  0.088  0.8634000000000002  1.0000
  H   H60       1.0  0.3441  0.1633  0.4579  1.0000
  H   H61       1.0  0.3962  0.2014  0.4885000000000001  1.0000
  H   H62       1.0  0.3099000000000001  0.2075  0.43870000000000003  1.0000
  H   H63       1.0  0.9695  0.0405  0.8917  1.0000
  H   H64       1.0  0.39310000000000006  0.3199  0.4952  1.0000
  H   H65       1.0  0.311  0.3418  0.4526  1.0000
  H   H66       1.0  0.3179  0.294  0.45380000000000004  1.0000
  H   H67       1.0  0.03800000000000001  0.3311  0.34  1.0000
  H   H68       1.0  0.9594000000000001  0.3664  0.318  1.0000
  H   H69       1.0  0.9991  0.3643  0.3791  1.0000
  H   H70       1.0  0.3043  0.4486  0.16400000000000006  1.0000
  H   H71       1.0  0.4465  0.5889  0.1168  1.0000
  H   H72       1.0  0.8  0.5412  0.3148  1.0000
  H   H73       1.0  0.62  0.5514  0.3243  1.0000
  H   H74       1.0  0.2848  0.3327  0.2089  1.0000
  H   H75       1.0  0.7133000000000002  0.6557000000000001  0.1546  1.0000
  H   H76       1.0  0.3299  0.6048  0.5501000000000001  1.0000
  H   H77       1.0  0.1048  0.3434  0.2228  1.0000
  H   H78       1.0  0.12180000000000005  0.458  0.17370000000000005  1.0000
  H   H79       1.0  0.8121000000000002  0.5968  0.17930000000000001  1.0000
  H   H80       1.0  0.8486  0.906  0.1846  1.0000
  H   H81       1.0  0.1111  0.5198  0.3905  1.0000
  H   H82       1.0  0.11930000000000003  0.5172  0.453  1.0000
  H   H83       1.0  0.01450000000000003  0.5365  0.4215000000000001  1.0000
  H   H84       1.0  0.7449  0.8507  0.1587  1.0000
  H   H85       1.0  0.6576000000000001  0.3259  0.1138  1.0000
  H   H86       1.0  0.7404  0.3434  0.16  1.0000
  H   H87       1.0  0.4826  0.2997  0.1362  1.0000
  H   H88       1.0  0.36690000000000006  0.3206  0.1245  1.0000
  H   H89       1.0  0.4581  0.327  0.0853  1.0000
  H   H90       1.0  0.2754  0.6807  0.3772  1.0000
  H   H91       1.0  0.1934  0.6607  0.33270000000000005  1.0000
  H   H92       1.0  0.3838  0.7591  0.0263  1.0000
  H   H93       1.0  0.5106  0.7563  0.0194  1.0000
  H   H94       1.0  0.6001  0.9789999999999999  0.1399  1.0000
  H   H95       1.0  0.5041  0.4736  0.21560000000000004  1.0000
  H   H96       1.0  0.4357  0.4471  0.2526  1.0000
  H   H97       1.0  0.5646  0.4495  0.2637  1.0000
  H   H98       1.0  0.9257  0.4674  0.11160000000000003  1.0000
  H   H99       1.0  0.9149  0.4726  0.0494  1.0000
  H   H100      1.0  0.8264000000000001  0.492  0.0831  1.0000
  H   H101      1.0  0.35590000000000005  0.5549  0.2331  1.0000
  H   H102      1.0  0.48400000000000004  0.5605  0.23400000000000007  1.0000
  H   H103      1.0  0.4353  0.5324  0.2764  1.0000
  H   H104      1.0  0.6553  0.6702  0.3021  1.0000
  H   H105      1.0  0.8391  0.6609  0.294  1.0000
  H   H106      1.0  0.4615  0.6795  0.41050000000000003  1.0000
  H   H107      1.0  0.5717  0.6769  0.3831000000000001  1.0000
  H   H108      1.0  0.4747  0.7047  0.35860000000000003  1.0000
  H   H109      1.0  0.8667  0.3768  0.8672  1.0000
  H   H110      1.0  0.2876  0.6764  0.1781  1.0000
  H   H111      1.0  0.3567  0.6359  0.1776  1.0000
  H   H112      1.0  0.39880000000000004  0.6723  0.2147  1.0000
  H   H113      1.0  0.2503  0.6908  0.4601  1.0000
  H   H114      1.0  0.24640000000000004  0.6682  0.5149  1.0000
  H   H115      1.0  0.3512  0.6644  0.4834  1.0000
  H   H116      1.0  0.8298  0.3623  0.9529  1.0000
  H   H117      1.0  0.5451  0.5302  0.1416  1.0000
  H   H118      1.0  0.8243000000000001  0.49449999999999994  0.8943000000000002  1.0000
  H   H119      1.0  0.7734000000000001  0.4805  0.9765000000000001  1.0000
  H   H120      1.0  0.4272000000000001  0.875  0.19690000000000002  1.0000
  H   H121      1.0  0.3296  0.8438  0.1873  1.0000
  H   H122      1.0  0.4391  0.8309  0.22100000000000003  1.0000
  H   H123      1.0  0.024  0.5628  0.5213  1.0000
  H   H124      1.0  0.4991  0.9245  0.1096  1.0000
  H   H125      1.0  0.5908  0.3402  0.0267  1.0000
  H   H126      1.0  0.6456  0.3545  0.9759  1.0000
  H   H127      1.0  0.7034  0.3211  0.0136  1.0000
  H   H128      1.0  0.3271  0.588  0.6366000000000003  1.0000
  H   H129      1.0  0.6559  0.6633  0.0421  1.0000
  H   H130      1.0  0.6038  0.7014  0.011500000000000003  1.0000
  H   H131      1.0  0.6901000000000002  0.7075  0.0613  1.0000
  H   H132      1.0  0.03050000000000002  0.5405  0.6083000000000001  1.0000
  H   H133      1.0  0.6069  0.8199  0.0048  1.0000
  H   H134      1.0  0.689  0.8418  0.047400000000000005  1.0000
  H   H135      1.0  0.6821  0.794  0.04620000000000001  1.0000
  H   H136      1.0  0.962  0.8311000000000001  0.16  1.0000
  H   H137      1.0  0.0406  0.8664  0.182  1.0000
  H   H138      1.0  0.000900000000000003  0.8643  0.12090000000000002  1.0000
  H   H139      1.0  0.3043  0.0514  0.664  1.0000
  H   H140      1.0  0.4465  0.9111  0.6168  1.0000
  H   H141      1.0  0.8  0.9588  0.8148000000000002  1.0000
  H   H142      1.0  0.62  0.9486  0.8243  1.0000
  H   H143      1.0  0.2848  0.1673  0.7089  1.0000
  H   H144      1.0  0.7133000000000002  0.8443  0.6546000000000001  1.0000
  H   H145      1.0  0.3299  0.8952  0.050100000000000006  1.0000
  H   H146      1.0  0.10480000000000006  0.1566  0.7228000000000001  1.0000
  H   H147      1.0  0.12180000000000005  0.042  0.6737000000000002  1.0000
  H   H148      1.0  0.8121000000000002  0.9032  0.6793000000000002  1.0000
  H   H149      1.0  0.8486  0.594  0.6846  1.0000
  H   H150      1.0  0.1111  0.9802000000000001  0.8905  1.0000
  H   H151      1.0  0.11930000000000003  0.9828000000000001  0.9530000000000001  1.0000
  H   H152      1.0  0.014500000000000022  0.9634999999999999  0.9215000000000002  1.0000
  H   H153      1.0  0.7449  0.6493  0.6587  1.0000
  H   H154      1.0  0.6576000000000001  0.1741  0.6138  1.0000
  H   H155      1.0  0.7404  0.1566  0.66  1.0000
  H   H156      1.0  0.48260000000000003  0.2003  0.6362000000000001  1.0000
  H   H157      1.0  0.36690000000000006  0.1794  0.6245  1.0000
  H   H158      1.0  0.4581  0.173  0.5853  1.0000
  H   H159      1.0  0.2754  0.8193  0.8772  1.0000
  H   H160      1.0  0.19340000000000002  0.8393  0.8327000000000002  1.0000
  H   H161      1.0  0.3838  0.7409  0.5263  1.0000
  H   H162      1.0  0.5105999999999998  0.7437  0.5194  1.0000
  H   H163      1.0  0.6001  0.521  0.6399  1.0000
  H   H164      1.0  0.5041  0.0264  0.7156  1.0000
  H   H165      1.0  0.4357  0.0529  0.7526  1.0000
  H   H166      1.0  0.5646000000000001  0.0505  0.7637000000000003  1.0000
  H   H167      1.0  0.9257  0.0326  0.6116  1.0000
  H   H168      1.0  0.9149  0.0274  0.5494  1.0000
  H   H169      1.0  0.8264000000000001  0.008  0.5831  1.0000
  H   H170      1.0  0.35590000000000005  0.9451  0.7331000000000001  1.0000
  H   H171      1.0  0.48400000000000004  0.9395  0.734  1.0000
  H   H172      1.0  0.4353  0.9676  0.7764  1.0000
  H   H173      1.0  0.6553  0.8298  0.8021  1.0000
  H   H174      1.0  0.8391  0.8391  0.794  1.0000
  H   H175      1.0  0.4615000000000001  0.8205  0.9105000000000002  1.0000
  H   H176      1.0  0.5717  0.8231  0.8831  1.0000
  H   H177      1.0  0.4747  0.7953  0.8586  1.0000
  H   H178      1.0  0.8667  0.12319999999999999  0.3672  1.0000
  H   H179      1.0  0.2876000000000001  0.8236  0.6781000000000001  1.0000
  H   H180      1.0  0.3567  0.8641  0.6776000000000002  1.0000
  H   H181      1.0  0.3988  0.8277  0.7147000000000001  1.0000
  H   H182      1.0  0.2503  0.8092  0.9601000000000001  1.0000
  H   H183      1.0  0.24640000000000004  0.8318  0.0149  1.0000
  H   H184      1.0  0.35120000000000007  0.8356  0.9834000000000002  1.0000
  H   H185      1.0  0.8298  0.1377  0.45290000000000014  1.0000
  H   H186      1.0  0.5451  0.9698000000000001  0.6416000000000001  1.0000
  H   H187      1.0  0.8243000000000001  0.0055  0.39430000000000004  1.0000
  H   H188      1.0  0.7734000000000001  0.0195  0.47650000000000003  1.0000
  H   H189      1.0  0.4272000000000001  0.625  0.6969  1.0000
  H   H190      1.0  0.3296  0.6562  0.6873  1.0000
  H   H191      1.0  0.4391  0.6691  0.721  1.0000
  H   H192      1.0  0.024  0.9372  0.021300000000000003  1.0000
  H   H193      1.0  0.4991  0.5755  0.6096  1.0000
  H   H194      1.0  0.5908  0.1598  0.5267  1.0000
  H   H195      1.0  0.6456  0.1455  0.4759  1.0000
  H   H196      1.0  0.7034  0.1789  0.5136  1.0000
  H   H197      1.0  0.3271  0.912  0.1366  1.0000
  H   H198      1.0  0.6559  0.8367  0.5421  1.0000
  H   H199      1.0  0.6038  0.7986  0.5115  1.0000
  H   H200      1.0  0.6901000000000002  0.7925  0.5613  1.0000
  H   H201      1.0  0.030500000000000003  0.9595000000000001  0.10830000000000001  1.0000
  H   H202      1.0  0.6069  0.6801  0.5048  1.0000
  H   H203      1.0  0.689  0.6582000000000001  0.5474  1.0000
  H   H204      1.0  0.6821  0.706  0.5462  1.0000
  H   H205      1.0  0.962  0.6689  0.66  1.0000
  H   H206      1.0  0.040600000000000046  0.6336  0.6820000000000003  1.0000
  H   H207      1.0  0.0009000000000000119  0.6357  0.6209  1.0000
  H   H208      1.0  0.6957000000000001  0.5514  0.836  1.0000
  H   H209      1.0  0.5535  0.4111  0.8832  1.0000
  H   H210      1.0  0.20000000000000007  0.4588  0.6852000000000003  1.0000
  H   H211      1.0  0.38000000000000006  0.4486  0.6757000000000001  1.0000
  H   H212      1.0  0.7152  0.6673  0.7911  1.0000
  H   H213      1.0  0.2867  0.3443  0.8454  1.0000
  H   H214      1.0  0.6701  0.3952  0.4499  1.0000
  H   H215      1.0  0.8952  0.6566  0.7772  1.0000
  H   H216      1.0  0.8782  0.542  0.8263000000000003  1.0000
  H   H217      1.0  0.18790000000000004  0.4032  0.8207000000000001  1.0000
  H   H218      1.0  0.1514  0.094  0.8154  1.0000
  H   H219      1.0  0.8889000000000001  0.48020000000000007  0.6095  1.0000
  H   H220      1.0  0.8807  0.48279999999999995  0.547  1.0000
  H   H221      1.0  0.9855  0.4635  0.5785  1.0000
  H   H222      1.0  0.2551  0.1493  0.8413000000000002  1.0000
  H   H223      1.0  0.3424  0.6741  0.8862000000000002  1.0000
  H   H224      1.0  0.2596000000000001  0.6566  0.84  1.0000
  H   H225      1.0  0.5174  0.7003  0.8638  1.0000
  H   H226      1.0  0.6331  0.6794  0.8755  1.0000
  H   H227      1.0  0.5419000000000002  0.673  0.9147000000000001  1.0000
  H   H228      1.0  0.7246000000000001  0.3193  0.6228  1.0000
  H   H229      1.0  0.8066  0.3393  0.6673000000000002  1.0000
  H   H230      1.0  0.6162000000000002  0.2409  0.9737  1.0000
  H   H231      1.0  0.4894000000000001  0.2437  0.9806  1.0000
  H   H232      1.0  0.3999  0.021  0.8601  1.0000
  H   H233      1.0  0.49590000000000006  0.5264  0.7844000000000001  1.0000
  H   H234      1.0  0.5643  0.5529  0.7474  1.0000
  H   H235      1.0  0.4354  0.5505  0.7363000000000001  1.0000
  H   H236      1.0  0.07430000000000006  0.5326  0.8884000000000002  1.0000
  H   H237      1.0  0.08509999999999997  0.5274  0.9506  1.0000
  H   H238      1.0  0.17360000000000003  0.508  0.9169000000000002  1.0000
  H   H239      1.0  0.6441  0.4451  0.7669000000000002  1.0000
  H   H240      1.0  0.516  0.4395  0.7660000000000001  1.0000
  H   H241      1.0  0.5647  0.4676  0.7236  1.0000
  H   H242      1.0  0.3447  0.3298  0.6979  1.0000
  H   H243      1.0  0.1609  0.3391  0.706  1.0000
  H   H244      1.0  0.5385000000000001  0.3205  0.5895  1.0000
  H   H245      1.0  0.4283  0.3231  0.6169  1.0000
  H   H246      1.0  0.5253  0.2953  0.6414  1.0000
  H   H247      1.0  0.1333  0.6232  0.1328  1.0000
  H   H248      1.0  0.7124000000000001  0.3236  0.8219000000000002  1.0000
  H   H249      1.0  0.6433000000000002  0.3641  0.8224000000000001  1.0000
  H   H250      1.0  0.6012  0.3277  0.7853  1.0000
  H   H251      1.0  0.7497  0.3092  0.5399  1.0000
  H   H252      1.0  0.7536  0.3318  0.48510000000000003  1.0000
  H   H253      1.0  0.6488  0.3356  0.5166  1.0000
  H   H254      1.0  0.17020000000000002  0.6377  0.0471  1.0000
  H   H255      1.0  0.4549  0.4698  0.8584  1.0000
  H   H256      1.0  0.1757  0.5055  0.1057  1.0000
  H   H257      1.0  0.22660000000000002  0.5195  0.023500000000000004  1.0000
  H   H258      1.0  0.5728  0.125  0.8031  1.0000
  H   H259      1.0  0.6704000000000001  0.1562  0.8127  1.0000
  H   H260      1.0  0.5609  0.1691  0.7790000000000001  1.0000
  H   H261      1.0  0.976  0.4372  0.47870000000000007  1.0000
  H   H262      1.0  0.5009  0.0755  0.8904000000000001  1.0000
  H   H263      1.0  0.4092  0.6598  0.9733000000000003  1.0000
  H   H264      1.0  0.35440000000000005  0.6455  0.0241  1.0000
  H   H265      1.0  0.29660000000000003  0.6789  0.9864  1.0000
  H   H266      1.0  0.6729  0.412  0.3634  1.0000
  H   H267      1.0  0.3441000000000001  0.3367  0.9579000000000001  1.0000
  H   H268      1.0  0.3962  0.2986  0.9885000000000003  1.0000
  H   H269      1.0  0.30990000000000006  0.2925  0.9387000000000002  1.0000
  H   H270      1.0  0.9695  0.4595  0.39170000000000005  1.0000
  H   H271      1.0  0.39310000000000006  0.1801  0.9952000000000001  1.0000
  H   H272      1.0  0.311  0.1582  0.9526  1.0000
  H   H273      1.0  0.3179  0.206  0.9538  1.0000
  H   H274      1.0  0.038000000000000034  0.1689  0.84  1.0000
  H   H275      1.0  0.9594000000000001  0.1336  0.8180000000000002  1.0000
  H   H276      1.0  0.9991  0.1357  0.8791000000000001  1.0000
  C   C1        1.0  0.9033  0.9008  0.3012  1.0000
  C   C2        1.0  0.24860000000000002  0.022  0.31830000000000014  1.0000
  C   C3        1.0  0.5799000000000002  0.1815  0.36140000000000005  1.0000
  C   C4        1.0  0.7755  0.1309  0.0477  1.0000
  C   C5        1.0  0.3807  0.1116  0.1882  1.0000
  C   C6        1.0  0.159  0.1002  0.1971  1.0000
  C   C7        1.0  0.3129000000000001  0.0587  0.3363  1.0000
  C   C8        1.0  0.8208  0.0507  0.8132  1.0000
  C   C9        1.0  0.1959  0.4832000000000001  0.3132  1.0000
  C   C10       1.0  0.8185  0.0972  0.0294  1.0000
  C   C11       1.0  0.12600000000000003  0.9454  0.6820000000000003  1.0000
  C   C12       1.0  0.568  0.887  0.3206  1.0000
  C   C13       1.0  0.7364  0.9267  0.32460000000000006  1.0000
  C   C14       1.0  0.2808  0.8775  0.4563  1.0000
  C   C15       1.0  0.5516  0.1452  0.1555  1.0000
  C   C16       1.0  0.6835000000000001  0.8902  0.3147  1.0000
  C   C17       1.0  0.5157  0.8586  0.3482  1.0000
  C   C18       1.0  0.0204  0.9074  0.2938  1.0000
  C   C19       1.0  0.42940000000000006  0.1278  0.3669000000000001  1.0000
  C   C20       1.0  0.499  0.1166  0.1844  1.0000
  C   C21       1.0  0.8215  0.062299999999999994  0.8694  1.0000
  C   C22       1.0  0.4793  0.0908  0.3705  1.0000
  C   C23       1.0  0.1988  0.9201  0.5257  1.0000
  C   C24       1.0  0.2287  0.0676  0.1879  1.0000
  C   C25       1.0  0.4852  0.9129  0.2989  1.0000
  C   C26       1.0  0.8543000000000001  0.0735  0.0738  1.0000
  C   C27       1.0  0.8225000000000001  0.0854  0.9748000000000001  1.0000
  C   C28       1.0  0.3357  0.0735  0.18290000000000003  1.0000
  C   C29       1.0  0.2227  0.9096  0.472  1.0000
  C   C30       1.0  0.7468  0.8584  0.2975  1.0000
  C   C31       1.0  0.4580999999999999  0.191  0.4196  1.0000
  C   C32       1.0  0.3214  0.1304  0.3482  1.0000
  C   C33       1.0  0.1902  0.9317  0.4256  1.0000
  C   C34       1.0  0.7327  0.0925  0.9385000000000001  1.0000
  C   C35       1.0  0.8544000000000002  0.8647  0.2902  1.0000
  C   C36       1.0  0.2635  0.4484  0.3331  1.0000
  C   C37       1.0  0.8448000000000001  0.9328  0.3186  1.0000
  C   C38       1.0  0.2623  0.095  0.333  1.0000
  C   C39       1.0  0.5469  0.3325  0.35720000000000013  1.0000
  C   C40       1.0  0.0431  0.0939  0.2041  1.0000
  C   C41       1.0  0.22430000000000003  0.4099  0.3293  1.0000
  C   C42       1.0  0.9069  0.0333  0.0775  1.0000
  C   C43       1.0  0.2854  0.3768  0.3448  1.0000
  C   C44       1.0  0.3181  0.8506  0.3673  1.0000
  C   C45       1.0  0.5553  0.8236  0.378  1.0000
  C   C46       1.0  0.747  0.155  0.1399  1.0000
  C   C47       1.0  0.5432  0.2576  0.4546  1.0000
  C   C48       1.0  0.3696  0.4529  0.3561000000000001  1.0000
  C   C49       1.0  0.48730000000000007  0.1652  0.3829  1.0000
  C   C50       1.0  0.4598  0.3466  0.38130000000000003  1.0000
  C   C51       1.0  0.49620000000000003  0.949  0.2636  1.0000
  C   C52       1.0  0.12520000000000006  0.9691  0.4199000000000001  1.0000
  C   C53       1.0  0.5761  0.0569  0.2443  1.0000
  C   C54       1.0  0.315  0.144  0.1958  1.0000
  C   C55       1.0  0.3944  0.3822  0.366  1.0000
  C   C56       1.0  0.1509  0.9371  0.6279  1.0000
  C   C57       1.0  0.20520000000000005  0.1383  0.20040000000000002  1.0000
  C   C58       1.0  0.5071  0.1795  0.123  1.0000
  C   C59       1.0  0.1497  0.898  0.6101  1.0000
  C   C60       1.0  0.6392  0.1652  0.31920000000000004  1.0000
  C   C61       1.0  0.7279  0.1666  0.02  1.0000
  C   C62       1.0  0.17260000000000003  0.8892  0.5591  1.0000
  C   C63       1.0  0.4207  0.0556  0.35540000000000005  1.0000
  C   C64       1.0  0.17690000000000003  0.9673999999999999  0.5942  1.0000
  C   C65       1.0  0.2041  0.9594  0.5448  1.0000
  C   C66       1.0  0.5916  0.3468  0.3089  1.0000
  C   C67       1.0  0.9123  0.0669  0.9558  1.0000
  C   C68       1.0  0.4308  0.4202  0.3731  1.0000
  C   C69       1.0  0.3403  0.8456  0.4877  1.0000
  C   C70       1.0  0.5813  0.0925  0.2082  1.0000
  C   C71       1.0  0.7338000000000001  0.0818  0.8873  1.0000
  C   C72       1.0  0.3697  0.1908  0.4541  1.0000
  C   C73       1.0  0.4458  0.3201  0.4220000000000001  1.0000
  C   C74       1.0  0.9096  0.0544  0.9034000000000001  1.0000
  C   C75       1.0  0.3594  0.3188  0.4591  1.0000
  C   C76       1.0  0.8832000000000001  0.3236  0.35650000000000004  1.0000
  C   C77       1.0  0.9779000000000002  0.3484  0.3477  1.0000
  C   C78       1.0  0.0967  0.4008  0.19880000000000003  1.0000
  C   C79       1.0  0.7514  0.522  0.1817  1.0000
  C   C80       1.0  0.4201  0.6815  0.1386  1.0000
  C   C81       1.0  0.2245  0.6309  0.4523000000000001  1.0000
  C   C82       1.0  0.6193  0.6116  0.3118000000000001  1.0000
  C   C83       1.0  0.841  0.6002  0.3029  1.0000
  C   C84       1.0  0.6871000000000002  0.5587  0.16370000000000004  1.0000
  C   C85       1.0  0.1792  0.5507  0.6868  1.0000
  C   C86       1.0  0.8041000000000001  0.9832000000000001  0.1868  1.0000
  C   C87       1.0  0.1815  0.5972  0.4706000000000001  1.0000
  C   C88       1.0  0.8740000000000001  0.4454  0.8180000000000002  1.0000
  C   C89       1.0  0.432  0.387  0.17940000000000006  1.0000
  C   C90       1.0  0.2636  0.4267  0.1754  1.0000
  C   C91       1.0  0.7192000000000001  0.3775  0.04370000000000001  1.0000
  C   C92       1.0  0.4484  0.6452  0.3445  1.0000
  C   C93       1.0  0.3165  0.3902  0.18530000000000002  1.0000
  C   C94       1.0  0.4843  0.3586  0.1518  1.0000
  C   C95       1.0  0.9796  0.4074  0.2062  1.0000
  C   C96       1.0  0.5706  0.6278  0.1331  1.0000
  C   C97       1.0  0.501  0.6166  0.3156  1.0000
  C   C98       1.0  0.1785  0.5623  0.6306  1.0000
  C   C99       1.0  0.5207  0.5908  0.1295  1.0000
  C   C100      1.0  0.8012  0.4201  0.9743000000000002  1.0000
  C   C101      1.0  0.7713000000000001  0.5676  0.3121  1.0000
  C   C102      1.0  0.5148  0.4129  0.2011  1.0000
  C   C103      1.0  0.1457  0.5735  0.4262  1.0000
  C   C104      1.0  0.17750000000000002  0.5854  0.5252  1.0000
  C   C105      1.0  0.6643  0.5735  0.31710000000000005  1.0000
  C   C106      1.0  0.7773  0.4096  0.028000000000000008  1.0000
  C   C107      1.0  0.2532  0.3584  0.2025  1.0000
  C   C108      1.0  0.5419  0.691  0.0804  1.0000
  C   C109      1.0  0.6786  0.6304  0.1518  1.0000
  C   C110      1.0  0.8098  0.4317  0.0744  1.0000
  C   C111      1.0  0.2673  0.5925  0.5615  1.0000
  C   C112      1.0  0.1456  0.3647  0.2098  1.0000
  C   C113      1.0  0.7365000000000002  0.9484  0.16690000000000002  1.0000
  C   C114      1.0  0.1552  0.4328  0.1814  1.0000
  C   C115      1.0  0.7377000000000001  0.595  0.167  1.0000
  C   C116      1.0  0.4531  0.8325  0.14280000000000004  1.0000
  C   C117      1.0  0.9569  0.5939  0.2959  1.0000
  C   C118      1.0  0.7757  0.9099  0.17070000000000002  1.0000
  C   C119      1.0  0.0931  0.5333  0.42250000000000004  1.0000
  C   C120      1.0  0.7146  0.8768  0.1552  1.0000
  C   C121      1.0  0.6819  0.3506  0.1327  1.0000
  C   C122      1.0  0.4447  0.3236  0.12200000000000003  1.0000
  C   C123      1.0  0.253  0.655  0.3601  1.0000
  C   C124      1.0  0.4568000000000001  0.7576  0.04540000000000002  1.0000
  C   C125      1.0  0.6304  0.9529  0.1439  1.0000
  C   C126      1.0  0.5127  0.6652  0.11710000000000001  1.0000
  C   C127      1.0  0.5402  0.8466  0.1187  1.0000
  C   C128      1.0  0.5038  0.449  0.23640000000000003  1.0000
  C   C129      1.0  0.8748  0.4691  0.08010000000000002  1.0000
  C   C130      1.0  0.42390000000000005  0.5569  0.2557  1.0000
  C   C131      1.0  0.685  0.644  0.3042  1.0000
  C   C132      1.0  0.6056  0.8822  0.134  1.0000
  C   C133      1.0  0.8491  0.4371  0.8721  1.0000
  C   C134      1.0  0.7948000000000001  0.6383  0.2996  1.0000
  C   C135      1.0  0.4929  0.6795  0.377  1.0000
  C   C136      1.0  0.8503000000000001  0.398  0.8899000000000001  1.0000
  C   C137      1.0  0.36080000000000007  0.6652  0.1808  1.0000
  C   C138      1.0  0.2721  0.66666667  0.48  1.0000
  C   C139      1.0  0.8274  0.3892  0.9409000000000002  1.0000
  C   C140      1.0  0.5793  0.5556  0.1446  1.0000
  C   C141      1.0  0.8231000000000002  0.4674  0.9058000000000003  1.0000
  C   C142      1.0  0.7959  0.45940000000000003  0.9552  1.0000
  C   C143      1.0  0.40840000000000004  0.8468  0.1911  1.0000
  C   C144      1.0  0.08770000000000001  0.5669  0.5442  1.0000
  C   C145      1.0  0.5692  0.9202  0.1269  1.0000
  C   C146      1.0  0.6597000000000001  0.3456  0.0123  1.0000
  C   C147      1.0  0.41870000000000007  0.5925  0.2918  1.0000
  C   C148      1.0  0.2662  0.5818  0.6127  1.0000
  C   C149      1.0  0.6303  0.6908  0.0459  1.0000
  C   C150      1.0  0.5542  0.8201  0.078  1.0000
  C   C151      1.0  0.0904  0.5544  0.5966  1.0000
  C   C152      1.0  0.6406  0.8188  0.0409  1.0000
  C   C153      1.0  0.11680000000000003  0.8236  0.1435  1.0000
  C   C154      1.0  0.0221  0.8484  0.1523  1.0000
  C   C155      1.0  0.0967  0.0992  0.6988  1.0000
  C   C156      1.0  0.7514  0.9780000000000001  0.6817  1.0000
  C   C157      1.0  0.4201  0.8185  0.6386000000000002  1.0000
  C   C158      1.0  0.2245  0.8691  0.9523  1.0000
  C   C159      1.0  0.6193  0.8884  0.8118  1.0000
  C   C160      1.0  0.841  0.8998  0.8029  1.0000
  C   C161      1.0  0.6871000000000002  0.9413  0.6637000000000001  1.0000
  C   C162      1.0  0.1792  0.9493  0.1868  1.0000
  C   C163      1.0  0.8041000000000001  0.5168  0.6868  1.0000
  C   C164      1.0  0.18150000000000002  0.9028  0.9706000000000002  1.0000
  C   C165      1.0  0.8740000000000001  0.0546  0.318  1.0000
  C   C166      1.0  0.432  0.113  0.6794  1.0000
  C   C167      1.0  0.26360000000000006  0.0733  0.6754000000000002  1.0000
  C   C168      1.0  0.7192000000000001  0.1225  0.5437  1.0000
  C   C169      1.0  0.4484  0.8548  0.8445000000000001  1.0000
  C   C170      1.0  0.3165  0.1098  0.6853  1.0000
  C   C171      1.0  0.4843  0.1414  0.6518  1.0000
  C   C172      1.0  0.9796  0.0926  0.7062  1.0000
  C   C173      1.0  0.5706  0.8722  0.6331  1.0000
  C   C174      1.0  0.501  0.8834  0.8156  1.0000
  C   C175      1.0  0.1785  0.9377  0.13060000000000002  1.0000
  C   C176      1.0  0.5207  0.9092  0.6295  1.0000
  C   C177      1.0  0.8012000000000001  0.0799  0.4743  1.0000
  C   C178      1.0  0.7713000000000001  0.9324  0.8121000000000002  1.0000
  C   C179      1.0  0.5148000000000003  0.0871  0.7011  1.0000
  C   C180      1.0  0.14570000000000002  0.9265  0.9262000000000001  1.0000
  C   C181      1.0  0.17750000000000002  0.9146  0.0252  1.0000
  C   C182      1.0  0.6643  0.9265  0.8171  1.0000
  C   C183      1.0  0.7773  0.0904  0.528  1.0000
  C   C184      1.0  0.2532  0.14160000000000003  0.7025  1.0000
  C   C185      1.0  0.5419000000000003  0.809  0.5804  1.0000
  C   C186      1.0  0.6786  0.8696  0.6518  1.0000
  C   C187      1.0  0.8098  0.0683  0.5744000000000001  1.0000
  C   C188      1.0  0.2673  0.9075  0.0615  1.0000
  C   C189      1.0  0.14560000000000003  0.1353  0.7098000000000001  1.0000
  C   C190      1.0  0.7365000000000002  0.5516  0.6669  1.0000
  C   C191      1.0  0.1552  0.0672  0.6814  1.0000
  C   C192      1.0  0.7377000000000001  0.905  0.667  1.0000
  C   C193      1.0  0.4531  0.6675  0.6428000000000001  1.0000
  C   C194      1.0  0.9569000000000001  0.9061  0.7959000000000002  1.0000
  C   C195      1.0  0.7757  0.5901  0.6707  1.0000
  C   C196      1.0  0.09310000000000002  0.9667  0.9225000000000002  1.0000
  C   C197      1.0  0.7146  0.6232  0.6552  1.0000
  C   C198      1.0  0.6819  0.1494  0.6327000000000002  1.0000
  C   C199      1.0  0.4447  0.1764  0.622  1.0000
  C   C200      1.0  0.253  0.845  0.8601  1.0000
  C   C201      1.0  0.4568000000000001  0.7424  0.5454  1.0000
  C   C202      1.0  0.6304  0.5471  0.6439  1.0000
  C   C203      1.0  0.5127000000000003  0.8348  0.6171  1.0000
  C   C204      1.0  0.5402  0.6534  0.6187  1.0000
  C   C205      1.0  0.5038  0.051  0.7364  1.0000
  C   C206      1.0  0.8748  0.0309  0.5801  1.0000
  C   C207      1.0  0.42390000000000005  0.9431  0.7557  1.0000
  C   C208      1.0  0.685  0.856  0.8042000000000002  1.0000
  C   C209      1.0  0.6056  0.6178  0.634  1.0000
  C   C210      1.0  0.8491  0.0629  0.3721  1.0000
  C   C211      1.0  0.7948000000000001  0.8617  0.7996000000000001  1.0000
  C   C212      1.0  0.4929  0.8205  0.877  1.0000
  C   C213      1.0  0.8503  0.102  0.3899  1.0000
  C   C214      1.0  0.3608000000000001  0.8348  0.6808000000000002  1.0000
  C   C215      1.0  0.27210000000000006  0.8334  0.9800000000000001  1.0000
  C   C216      1.0  0.8274  0.1108  0.44090000000000007  1.0000
  C   C217      1.0  0.5793  0.9444  0.6446  1.0000
  C   C218      1.0  0.8231000000000002  0.0326  0.4058000000000001  1.0000
  C   C219      1.0  0.7959  0.0406  0.4552  1.0000
  C   C220      1.0  0.4084000000000001  0.6532  0.6911000000000002  1.0000
  C   C221      1.0  0.0877  0.9331  0.0442  1.0000
  C   C222      1.0  0.5692  0.5798  0.6269  1.0000
  C   C223      1.0  0.6597000000000001  0.1544  0.5123  1.0000
  C   C224      1.0  0.41870000000000007  0.9075  0.7918000000000001  1.0000
  C   C225      1.0  0.2662  0.9182  0.1127  1.0000
  C   C226      1.0  0.6303  0.8092  0.5459  1.0000
  C   C227      1.0  0.5542  0.6799  0.578  1.0000
  C   C228      1.0  0.0904  0.9456  0.09660000000000003  1.0000
  C   C229      1.0  0.6406  0.6812  0.5409  1.0000
  C   C230      1.0  0.11680000000000007  0.6764  0.6435000000000002  1.0000
  C   C231      1.0  0.02209999999999999  0.6516000000000001  0.6523  1.0000
  C   C232      1.0  0.9033  0.5992  0.8012  1.0000
  C   C233      1.0  0.2486  0.478  0.8183  1.0000
  C   C234      1.0  0.5799  0.3185  0.8614000000000002  1.0000
  C   C235      1.0  0.7755  0.3691  0.5477  1.0000
  C   C236      1.0  0.3807  0.3884  0.6882000000000001  1.0000
  C   C237      1.0  0.159  0.3998  0.6971  1.0000
  C   C238      1.0  0.3129  0.4413  0.8363  1.0000
  C   C239      1.0  0.8208  0.4493  0.3132  1.0000
  C   C240      1.0  0.1959  0.0168  0.8132  1.0000
  C   C241      1.0  0.8185  0.4028  0.5294  1.0000
  C   C242      1.0  0.126  0.5546  0.182  1.0000
  C   C243      1.0  0.568  0.613  0.8206  1.0000
  C   C244      1.0  0.7364  0.5733  0.8246000000000002  1.0000
  C   C245      1.0  0.2808  0.6225  0.9563  1.0000
  C   C246      1.0  0.5516  0.3548  0.6555  1.0000
  C   C247      1.0  0.6835000000000001  0.6098  0.8147  1.0000
  C   C248      1.0  0.5157  0.6414  0.8482000000000001  1.0000
  C   C249      1.0  0.020399999999999995  0.5926  0.7938  1.0000
  C   C250      1.0  0.42940000000000006  0.3722  0.8669  1.0000
  C   C251      1.0  0.499  0.3834  0.6844  1.0000
  C   C252      1.0  0.8215  0.4377  0.3694  1.0000
  C   C253      1.0  0.4793  0.4092  0.8705000000000002  1.0000
  C   C254      1.0  0.1988  0.5799  0.025700000000000004  1.0000
  C   C255      1.0  0.2287  0.4324  0.6879  1.0000
  C   C256      1.0  0.4852  0.5871  0.7989  1.0000
  C   C257      1.0  0.8543000000000001  0.4265  0.5738  1.0000
  C   C258      1.0  0.8225000000000001  0.4146  0.4748  1.0000
  C   C259      1.0  0.3357  0.4265  0.6829  1.0000
  C   C260      1.0  0.2227  0.5904  0.972  1.0000
  C   C261      1.0  0.7468  0.6416  0.7975  1.0000
  C   C262      1.0  0.45810000000000006  0.309  0.9196000000000001  1.0000
  C   C263      1.0  0.3214  0.3696  0.8482000000000001  1.0000
  C   C264      1.0  0.1902  0.5683  0.9256  1.0000
  C   C265      1.0  0.7327  0.4075  0.4385  1.0000
  C   C266      1.0  0.8544000000000002  0.6353  0.7902  1.0000
  C   C267      1.0  0.26349999999999996  0.0516  0.8331  1.0000
  C   C268      1.0  0.8448000000000002  0.5672  0.8186  1.0000
  C   C269      1.0  0.2622999999999999  0.405  0.8330000000000001  1.0000
  C   C270      1.0  0.5469000000000003  0.1675  0.8572  1.0000
  C   C271      1.0  0.043100000000000006  0.4061  0.7041  1.0000
  C   C272      1.0  0.22430000000000005  0.0901  0.8293000000000001  1.0000
  C   C273      1.0  0.9069  0.4667  0.5775  1.0000
  C   C274      1.0  0.2854  0.12319999999999999  0.8448  1.0000
  C   C275      1.0  0.3181000000000001  0.6494  0.8673000000000002  1.0000
  C   C276      1.0  0.5553  0.6764  0.878  1.0000
  C   C277      1.0  0.747  0.345  0.6399  1.0000
  C   C278      1.0  0.5432  0.2424  0.9546  1.0000
  C   C279      1.0  0.3696  0.0471  0.8561  1.0000
  C   C280      1.0  0.48730000000000007  0.3348  0.8829  1.0000
  C   C281      1.0  0.4598  0.1534  0.8813000000000002  1.0000
  C   C282      1.0  0.4962000000000001  0.551  0.7636  1.0000
  C   C283      1.0  0.12519999999999998  0.5309  0.9199  1.0000
  C   C284      1.0  0.5761  0.4431  0.7443  1.0000
  C   C285      1.0  0.315  0.356  0.6958000000000001  1.0000
  C   C286      1.0  0.3944  0.1178  0.866  1.0000
  C   C287      1.0  0.1509  0.5629  0.1279  1.0000
  C   C288      1.0  0.20520000000000008  0.3617  0.7004000000000002  1.0000
  C   C289      1.0  0.5071  0.3205  0.6230000000000001  1.0000
  C   C290      1.0  0.14970000000000003  0.602  0.11010000000000002  1.0000
  C   C291      1.0  0.6392  0.3348  0.8192000000000002  1.0000
  C   C292      1.0  0.7279  0.3334  0.52  1.0000
  C   C293      1.0  0.17260000000000003  0.6108  0.05910000000000001  1.0000
  C   C294      1.0  0.4207  0.4444  0.8554  1.0000
  C   C295      1.0  0.17690000000000003  0.5326  0.0942  1.0000
  C   C296      1.0  0.2041  0.5406  0.0448  1.0000
  C   C297      1.0  0.5916  0.1532  0.8089000000000002  1.0000
  C   C298      1.0  0.9123  0.4331  0.4558  1.0000
  C   C299      1.0  0.4308  0.0798  0.8731  1.0000
  C   C300      1.0  0.3403  0.6544  0.9877  1.0000
  C   C301      1.0  0.5813  0.4075  0.7082  1.0000
  C   C302      1.0  0.7338000000000001  0.4182  0.38730000000000003  1.0000
  C   C303      1.0  0.3697  0.3092  0.9541  1.0000
  C   C304      1.0  0.4458  0.1799  0.9220000000000003  1.0000
  C   C305      1.0  0.9096  0.4456  0.4034  1.0000
  C   C306      1.0  0.3594  0.1812  0.9591000000000002  1.0000
  C   C307      1.0  0.8832000000000001  0.1764  0.8565000000000002  1.0000
  C   C308      1.0  0.9779000000000002  0.1516  0.8477000000000001  1.0000
  N   N1        1.0  0.4090000000000001  0.86826  0.3426000000000001  1.0000
  N   N2        1.0  0.3906  0.90125  0.312  1.0000
  N   N3        1.0  0.27730000000000005  0.87922  0.4037000000000001  1.0000
  N   N4        1.0  0.678  0.10497  0.1963  1.0000
  N   N5        1.0  0.5896000000000001  0.29926  0.38200000000000006  1.0000
  N   N6        1.0  0.5349  0.22159  0.4218  1.0000
  N   N7        1.0  0.22110000000000002  0.91214  0.3839  1.0000
  N   N8        1.0  0.6067  0.21574  0.3872  1.0000
  N   N9        1.0  0.5238  0.29283  0.42190000000000005  1.0000
  N   N10       1.0  0.6557  0.13778  0.16390000000000002  1.0000
  N   N11       1.0  0.7851  0.12781  0.1012  1.0000
  N   N12       1.0  0.8322  0.09315  0.11739  1.0000
  N   N13       1.0  0.7138  0.2638  0.2484  1.0000
  N   N14       1.0  0.8158  0.3026  0.36250000000000004  1.0000
  N   N15       1.0  0.8629  0.2249  0.4354  1.0000
  N   N16       1.0  0.591  0.36826  0.1574  1.0000
  N   N17       1.0  0.6094  0.40125  0.18800000000000003  1.0000
  N   N18       1.0  0.7227  0.37922  0.09630000000000001  1.0000
  N   N19       1.0  0.322  0.60497  0.3037000000000001  1.0000
  N   N20       1.0  0.4104  0.79926  0.118  1.0000
  N   N21       1.0  0.4651  0.72159  0.0782  1.0000
  N   N22       1.0  0.7789  0.41214  0.1161  1.0000
  N   N23       1.0  0.3933  0.71574  0.11280000000000003  1.0000
  N   N24       1.0  0.4762  0.79283  0.0781  1.0000
  N   N25       1.0  0.34430000000000005  0.63778  0.3361000000000001  1.0000
  N   N26       1.0  0.21490000000000004  0.62781  0.3988000000000001  1.0000
  N   N27       1.0  0.1678  0.59315  0.38261000000000006  1.0000
  N   N28       1.0  0.2862  0.7638  0.2516  1.0000
  N   N29       1.0  0.18420000000000003  0.8026  0.1375  1.0000
  N   N30       1.0  0.1371  0.7249  0.0646  1.0000
  N   N31       1.0  0.591  0.13174  0.6574  1.0000
  N   N32       1.0  0.6094  0.09875  0.688  1.0000
  N   N33       1.0  0.7227  0.12077999999999998  0.5963  1.0000
  N   N34       1.0  0.322  0.89503  0.8037  1.0000
  N   N35       1.0  0.4104  0.70074  0.618  1.0000
  N   N36       1.0  0.4651  0.77841  0.5782  1.0000
  N   N37       1.0  0.7789  0.08786  0.6161  1.0000
  N   N38       1.0  0.3933  0.78426  0.6128  1.0000
  N   N39       1.0  0.47620000000000007  0.70717  0.5781  1.0000
  N   N40       1.0  0.34430000000000005  0.86222  0.8361  1.0000
  N   N41       1.0  0.2149  0.87219  0.8988  1.0000
  N   N42       1.0  0.1678  0.90685  0.88261  1.0000
  N   N43       1.0  0.2862  0.7362  0.7516  1.0000
  N   N44       1.0  0.18420000000000003  0.6974  0.6375  1.0000
  N   N45       1.0  0.13710000000000003  0.7751  0.5646000000000001  1.0000
  N   N46       1.0  0.40900000000000003  0.63174  0.8426  1.0000
  N   N47       1.0  0.3906  0.59875  0.812  1.0000
  N   N48       1.0  0.27730000000000005  0.62078  0.9037000000000001  1.0000
  N   N49       1.0  0.678  0.39503  0.6963000000000001  1.0000
  N   N50       1.0  0.5896  0.20074  0.8820000000000002  1.0000
  N   N51       1.0  0.5349  0.27841  0.9218000000000002  1.0000
  N   N52       1.0  0.22110000000000002  0.58786  0.8839  1.0000
  N   N53       1.0  0.6067  0.28426  0.8872000000000001  1.0000
  N   N54       1.0  0.5238  0.20717  0.9219  1.0000
  N   N55       1.0  0.6557  0.36222  0.6639000000000002  1.0000
  N   N56       1.0  0.7851  0.37219  0.6012  1.0000
  N   N57       1.0  0.8322  0.40685  0.61739  1.0000
  N   N58       1.0  0.7138  0.2362  0.7484  1.0000
  N   N59       1.0  0.8158  0.1974  0.8625  1.0000
  N   N60       1.0  0.8629  0.2751  0.9354  1.0000
  O   O1        1.0  0.0551  0.94338  0.29654  1.0000
  O   O2        1.0  0.9811000000000001  0.12290000000000001  0.20636  1.0000
  O   O3        1.0  0.0813  0.97793  0.69136  1.0000
  O   O4        1.0  0.7616  0.0709  0.7802100000000001  1.0000
  O   O5        1.0  0.2375  0.51802  0.31694  1.0000
  O   O6        1.0  0.0826  0.87829  0.28776  1.0000
  O   O7        1.0  0.29640000000000005  0.9886099999999999  0.3233500000000001  1.0000
  O   O8        1.0  0.1015  0.47494  0.2948  1.0000
  O   O9        1.0  0.005699999999999997  0.05768  0.20404000000000003  1.0000
  O   O10       1.0  0.1557  0.91883  0.71617  1.0000
  O   O11       1.0  0.1519  0.02766  0.30147  1.0000
  O   O12       1.0  0.8768  0.0211  0.80263  1.0000
  O   O13       1.0  0.8322  0.22261  0.3844  1.0000
  O   O14       1.0  0.9411000000000002  0.20495  0.4528000000000001  1.0000
  O   O15       1.0  0.811  0.24790000000000004  0.4617  1.0000
  O   O16       1.0  0.6619  0.25432  0.2843  1.0000
  O   O17       1.0  0.6698000000000001  0.2767  0.2071  1.0000
  O   O18       1.0  0.8177000000000001  0.2625  0.2543  1.0000
  O   O19       1.0  0.9449  0.44338  0.20346  1.0000
  O   O20       1.0  0.0189  0.6229  0.29364  1.0000
  O   O21       1.0  0.9187  0.47793  0.80864  1.0000
  O   O22       1.0  0.2384  0.5709  0.71979  1.0000
  O   O23       1.0  0.7625  0.01802  0.18306000000000006  1.0000
  O   O24       1.0  0.9174  0.37829  0.21224000000000007  1.0000
  O   O25       1.0  0.7036  0.48861000000000004  0.17665000000000003  1.0000
  O   O26       1.0  0.8985  0.9749399999999999  0.2052  1.0000
  O   O27       1.0  0.9943  0.55768  0.29596  1.0000
  O   O28       1.0  0.8443000000000003  0.41883000000000004  0.7838300000000001  1.0000
  O   O29       1.0  0.8481000000000001  0.52766  0.19853000000000004  1.0000
  O   O30       1.0  0.12320000000000002  0.5211  0.69737  1.0000
  O   O31       1.0  0.1678  0.72261  0.11560000000000001  1.0000
  O   O32       1.0  0.05890000000000001  0.70495  0.047200000000000006  1.0000
  O   O33       1.0  0.189  0.7479  0.0383  1.0000
  O   O34       1.0  0.3381  0.75432  0.2157  1.0000
  O   O35       1.0  0.3302  0.7767  0.2929  1.0000
  O   O36       1.0  0.1823  0.7625  0.2457  1.0000
  O   O37       1.0  0.9449  0.05662  0.70346  1.0000
  O   O38       1.0  0.0189  0.8771  0.79364  1.0000
  O   O39       1.0  0.9187  0.02207  0.30864  1.0000
  O   O40       1.0  0.23840000000000003  0.9291  0.21979000000000007  1.0000
  O   O41       1.0  0.7625  0.48198  0.68306  1.0000
  O   O42       1.0  0.9174  0.12171000000000001  0.71224  1.0000
  O   O43       1.0  0.7036  0.01139  0.67665  1.0000
  O   O44       1.0  0.8985  0.52506  0.7052  1.0000
  O   O45       1.0  0.9943  0.94232  0.7959600000000002  1.0000
  O   O46       1.0  0.8443000000000003  0.08117  0.28383  1.0000
  O   O47       1.0  0.8481000000000001  0.97234  0.69853  1.0000
  O   O48       1.0  0.12320000000000002  0.9789000000000001  0.19737  1.0000
  O   O49       1.0  0.1678  0.77739  0.6156  1.0000
  O   O50       1.0  0.05889999999999998  0.79505  0.5472  1.0000
  O   O51       1.0  0.189  0.7521  0.5383  1.0000
  O   O52       1.0  0.3381  0.74568  0.7157000000000001  1.0000
  O   O53       1.0  0.3302  0.7233  0.7929000000000003  1.0000
  O   O54       1.0  0.1823  0.7375  0.7457  1.0000
  O   O55       1.0  0.05510000000000003  0.55662  0.7965400000000001  1.0000
  O   O56       1.0  0.9811000000000001  0.3771  0.70636  1.0000
  O   O57       1.0  0.0813  0.52207  0.19136  1.0000
  O   O58       1.0  0.7616  0.4291  0.28021  1.0000
  O   O59       1.0  0.23750000000000002  0.98198  0.8169400000000001  1.0000
  O   O60       1.0  0.0826  0.62171  0.78776  1.0000
  O   O61       1.0  0.2964  0.51139  0.82335  1.0000
  O   O62       1.0  0.1015  0.02506  0.7948  1.0000
  O   O63       1.0  0.005700000000000028  0.44232  0.7040400000000001  1.0000
  O   O64       1.0  0.1557  0.58117  0.21617000000000003  1.0000
  O   O65       1.0  0.1519  0.47234  0.80147  1.0000
  O   O66       1.0  0.8768  0.4789  0.30263  1.0000
  O   O67       1.0  0.8322  0.27739  0.8844  1.0000
  O   O68       1.0  0.9411  0.29505  0.9528  1.0000
  O   O69       1.0  0.811  0.2521  0.9617  1.0000
  O   O70       1.0  0.6619  0.24568  0.7843  1.0000
  O   O71       1.0  0.6698000000000001  0.2233  0.7071000000000001  1.0000
  O   O72       1.0  0.8177000000000001  0.2375  0.7543  1.0000
  N   N61       1.0  0.6997  0.7516  0.9311000000000001  1.0000
  O   O73       1.0  0.6087  0.75495  0.9439000000000001  1.0000
  O   O74       1.0  0.7698  0.7301  0.9592  1.0000
  O   O75       1.0  0.7303  0.7672  0.8908  1.0000
  N   N62       1.0  0.3003  0.2516  0.5689  1.0000
  O   O76       1.0  0.39130000000000004  0.25495  0.5561  1.0000
  O   O77       1.0  0.2302  0.2301  0.5408  1.0000
  O   O78       1.0  0.2697  0.2672  0.6092  1.0000
  N   N63       1.0  0.3003  0.2484  0.0689  1.0000
  O   O79       1.0  0.39130000000000004  0.24505000000000002  0.0561  1.0000
  O   O80       1.0  0.2302  0.2699  0.04080000000000002  1.0000
  O   O81       1.0  0.2697  0.2328  0.1092  1.0000
  N   N64       1.0  0.6997  0.7484  0.43110000000000004  1.0000
  O   O82       1.0  0.6087  0.74505  0.4439  1.0000
  O   O83       1.0  0.7698  0.7699  0.45920000000000005  1.0000
  O   O84       1.0  0.7303  0.7328  0.3908  1.0000
