data_image0
_chemical_formula_structural       Ni8H264C324S4N84O28SeO4SeO4SeO4SeO4
_chemical_formula_sum              "Ni8 H264 C324 S4 N84 O44 Se4"
_cell_length_a       24.5938
_cell_length_b       24.5938
_cell_length_c       27.479
_cell_angle_alpha    73.2344
_cell_angle_beta     106.76599999999999
_cell_angle_gamma    144.09700000000004

_space_group_name_H-M_alt    "P 1"
_space_group_IT_number       1

loop_
  _space_group_symop_operation_xyz
  'x, y, z'

loop_
  _atom_site_type_symbol
  _atom_site_label
  _atom_site_symmetry_multiplicity
  _atom_site_fract_x
  _atom_site_fract_y
  _atom_site_fract_z
  _atom_site_occupancy
  Ni  Ni1       1.0  0.53346  0.29126  0.04792  1.0000
  Ni  Ni2       1.0  0.29126  0.53346  0.45208  1.0000
  Ni  Ni3       1.0  0.4665400000000001  0.7087400000000003  0.9520799999999999  1.0000
  Ni  Ni4       1.0  0.7087400000000001  0.46654000000000007  0.54792  1.0000
  Ni  Ni5       1.0  0.5  0.0  0.0  1.0000
  Ni  Ni6       1.0  0.0  0.5  0.5  1.0000
  Ni  Ni7       1.0  0.0  0.0  0.5  1.0000
  Ni  Ni8       1.0  0.0  0.0  0.0  1.0000
  H   H1        1.0  0.5415499999999999  0.9556899999999999  0.96285  1.0000
  H   H2        1.0  0.8752  0.89196  0.56017  1.0000
  H   H3        1.0  0.5803000000000003  0.41464000000000006  0.97694  1.0000
  H   H4        1.0  0.9696600000000002  0.7947200000000002  0.14026  1.0000
  H   H5        1.0  0.7388200000000003  0.4723600000000001  0.0049499999999999995  1.0000
  H   H6        1.0  0.83139  0.73583  0.24681999999999998  1.0000
  H   H7        1.0  0.8003200000000001  0.7587400000000001  0.30545  1.0000
  H   H8        1.0  0.76203  0.5218700000000002  0.2455  1.0000
  H   H9        1.0  0.3885600000000001  0.07914000000000006  0.54908  1.0000
  H   H10       1.0  0.8625300000000002  0.66005  0.27501  1.0000
  H   H11       1.0  0.3710400000000001  0.12506000000000006  0.11996  1.0000
  H   H12       1.0  0.45907000000000014  0.95455  0.8828199999999998  1.0000
  H   H13       1.0  0.39131  0.09593000000000003  0.00899  1.0000
  H   H14       1.0  0.9708700000000005  0.7621700000000002  0.53804  1.0000
  H   H15       1.0  0.8144499999999999  0.35915000000000014  0.5625  1.0000
  H   H16       1.0  0.69688  0.4981600000000001  0.08268999999999999  1.0000
  H   H17       1.0  0.8598900000000003  0.65173  0.10935  1.0000
  H   H18       1.0  0.4695799999999998  0.9729  0.70722  1.0000
  H   H19       1.0  0.50826  0.0015599999999999867  0.79325  1.0000
  H   H20       1.0  0.26097000000000004  0.03449000000000002  0.51046  1.0000
  H   H21       1.0  0.24665000000000023  0.8330700000000002  0.87247  1.0000
  H   H22       1.0  0.10712000000000013  0.9635200000000003  0.28696  1.0000
  H   H23       1.0  0.6207600000000002  0.28444  0.16275  1.0000
  H   H24       1.0  0.73014  0.40954000000000007  0.21685999999999997  1.0000
  H   H25       1.0  0.33421000000000006  0.010549999999999997  0.68081  1.0000
  H   H26       1.0  0.6737500000000001  0.15712  0.48401  1.0000
  H   H27       1.0  0.2969500000000002  0.82659  0.81765  1.0000
  H   H28       1.0  0.99077  0.65273  0.79342  1.0000
  H   H29       1.0  0.0463099999999999  0.97089  0.17682  1.0000
  H   H30       1.0  0.9744600000000004  0.7244600000000002  0.9014999999999999  1.0000
  H   H31       1.0  0.27721  0.01989  0.1883  1.0000
  H   H32       1.0  0.03183000000000022  0.9689700000000002  0.41565  1.0000
  H   H33       1.0  0.16374  0.03454  0.52976  1.0000
  H   H34       1.0  0.09693000000000018  0.8074500000000002  0.60824  1.0000
  H   H35       1.0  0.18329  0.10719  0.1362  1.0000
  H   H36       1.0  0.5489400000000001  0.21492000000000008  0.9809699999999999  1.0000
  H   H37       1.0  0.1382500000000002  0.8835100000000002  0.22847  1.0000
  H   H38       1.0  0.22781000000000004  0.9259100000000001  0.9958399999999998  1.0000
  H   H39       1.0  0.6721299999999999  0.31141  0.9249499999999998  1.0000
  H   H40       1.0  0.8294600000000004  0.29508  0.4571  1.0000
  H   H41       1.0  0.7727600000000002  0.80384  0.34658  1.0000
  H   H42       1.0  0.37496  0.043599999999999986  0.76547  1.0000
  H   H43       1.0  0.13115000000000004  0.7858300000000003  0.9660199999999998  1.0000
  H   H44       1.0  0.21498000000000017  0.8407200000000002  0.64498  1.0000
  H   H45       1.0  0.07297000000000015  0.9879100000000002  0.34415  1.0000
  H   H46       1.0  0.8429300000000001  0.44443000000000016  0.92373  1.0000
  H   H47       1.0  0.5600500000000002  0.16997000000000012  0.64101  1.0000
  H   H48       1.0  0.041290000000000215  0.6413700000000002  0.74083  1.0000
  H   H49       1.0  0.8002000000000004  0.8594400000000002  0.42398  1.0000
  H   H50       1.0  0.3326800000000002  0.7378800000000001  0.71965  1.0000
  H   H51       1.0  0.9786199999999999  0.56876  0.8892799999999998  1.0000
  H   H52       1.0  0.6930300000000001  0.26821  0.60302  1.0000
  H   H53       1.0  0.40077000000000024  0.2693300000000001  0.94554  1.0000
  H   H54       1.0  0.29279999999999995  0.14350000000000002  0.8925599999999999  1.0000
  H   H55       1.0  0.18154000000000006  0.9070600000000001  0.82295  1.0000
  H   H56       1.0  0.8395500000000004  0.5955500000000001  0.9412999999999998  1.0000
  H   H57       1.0  0.5515300000000001  0.06917  0.51915  1.0000
  H   H58       1.0  0.12009000000000011  0.6814500000000002  0.6728299999999998  1.0000
  H   H59       1.0  0.8971000000000002  0.7944400000000001  0.52073  1.0000
  H   H60       1.0  0.3124500000000002  0.7619300000000002  0.7859  1.0000
  H   H61       1.0  0.27347000000000005  0.044030000000000014  0.85269  1.0000
  H   H62       1.0  0.51494  0.13824000000000003  0.92466  1.0000
  H   H63       1.0  0.50124  0.15726  0.8317  1.0000
  H   H64       1.0  0.4218200000000003  0.9706200000000003  0.55934  1.0000
  H   H65       1.0  0.4628100000000001  0.34955000000000014  0.07136  1.0000
  H   H66       1.0  0.32934  0.24908000000000005  0.11907  1.0000
  H   H67       1.0  0.9556900000000002  0.54155  0.53715  1.0000
  H   H68       1.0  0.8919600000000001  0.8752000000000002  0.93983  1.0000
  H   H69       1.0  0.41464000000000023  0.5803000000000003  0.52306  1.0000
  H   H70       1.0  0.7947200000000003  0.9696600000000002  0.35974  1.0000
  H   H71       1.0  0.47236000000000017  0.7388200000000003  0.49504999999999993  1.0000
  H   H72       1.0  0.7358300000000002  0.8313900000000001  0.25318  1.0000
  H   H73       1.0  0.7587400000000001  0.80032  0.19455  1.0000
  H   H74       1.0  0.5218700000000002  0.7620300000000002  0.2545  1.0000
  H   H75       1.0  0.07914000000000018  0.3885600000000002  0.9509199999999998  1.0000
  H   H76       1.0  0.6600500000000001  0.86253  0.22499  1.0000
  H   H77       1.0  0.12506000000000014  0.3710400000000001  0.38004  1.0000
  H   H78       1.0  0.95455  0.45907000000000003  0.61718  1.0000
  H   H79       1.0  0.0959300000000002  0.39131000000000005  0.49101  1.0000
  H   H80       1.0  0.7621699999999999  0.9708699999999999  0.96196  1.0000
  H   H81       1.0  0.3591500000000001  0.8144500000000002  0.9375  1.0000
  H   H82       1.0  0.49816000000000016  0.6968800000000002  0.41731  1.0000
  H   H83       1.0  0.6517300000000003  0.85989  0.3906499999999999  1.0000
  H   H84       1.0  0.9729000000000002  0.46958000000000005  0.7927799999999998  1.0000
  H   H85       1.0  0.0015599999999999438  0.50826  0.70675  1.0000
  H   H86       1.0  0.03449000000000003  0.26097  0.98954  1.0000
  H   H87       1.0  0.8330699999999999  0.24665  0.62753  1.0000
  H   H88       1.0  0.96352  0.10712000000000006  0.21304  1.0000
  H   H89       1.0  0.28444000000000025  0.6207600000000002  0.33725  1.0000
  H   H90       1.0  0.40954000000000035  0.7301400000000002  0.28314  1.0000
  H   H91       1.0  0.010550000000000012  0.3342100000000001  0.8191899999999999  1.0000
  H   H92       1.0  0.15712000000000007  0.67375  0.01599  1.0000
  H   H93       1.0  0.8265900000000002  0.29695  0.68235  1.0000
  H   H94       1.0  0.6527300000000001  0.9907700000000003  0.70658  1.0000
  H   H95       1.0  0.9708900000000003  0.046310000000000025  0.32318  1.0000
  H   H96       1.0  0.7244600000000003  0.9744600000000002  0.5985  1.0000
  H   H97       1.0  0.019890000000000005  0.27721  0.3117  1.0000
  H   H98       1.0  0.9689700000000002  0.031830000000000004  0.08434999999999998  1.0000
  H   H99       1.0  0.03454000000000007  0.1637400000000001  0.97024  1.0000
  H   H100      1.0  0.8074499999999999  0.09693000000000003  0.8917599999999998  1.0000
  H   H101      1.0  0.10719000000000004  0.18329000000000006  0.3638  1.0000
  H   H102      1.0  0.2149200000000001  0.54894  0.51903  1.0000
  H   H103      1.0  0.88351  0.13825  0.27153  1.0000
  H   H104      1.0  0.9259100000000001  0.22781000000000012  0.50416  1.0000
  H   H105      1.0  0.31141000000000013  0.6721300000000001  0.57505  1.0000
  H   H106      1.0  0.29508  0.82946  0.0429  1.0000
  H   H107      1.0  0.8038400000000001  0.7727600000000002  0.15342  1.0000
  H   H108      1.0  0.04360000000000007  0.37496  0.7345299999999999  1.0000
  H   H109      1.0  0.7858300000000004  0.13115  0.53398  1.0000
  H   H110      1.0  0.84072  0.21498000000000003  0.85502  1.0000
  H   H111      1.0  0.9879100000000002  0.07297  0.15585  1.0000
  H   H112      1.0  0.44442999999999994  0.8429299999999998  0.57627  1.0000
  H   H113      1.0  0.16997000000000007  0.5600500000000003  0.8589899999999998  1.0000
  H   H114      1.0  0.6413700000000001  0.041290000000000014  0.75917  1.0000
  H   H115      1.0  0.8594400000000001  0.8002  0.07602  1.0000
  H   H116      1.0  0.7378800000000001  0.3326800000000001  0.78035  1.0000
  H   H117      1.0  0.5687600000000002  0.9786200000000003  0.61072  1.0000
  H   H118      1.0  0.26821000000000017  0.6930300000000003  0.89698  1.0000
  H   H119      1.0  0.2693300000000002  0.4007700000000001  0.55446  1.0000
  H   H120      1.0  0.14350000000000007  0.2928  0.60744  1.0000
  H   H121      1.0  0.9070600000000002  0.18154  0.67705  1.0000
  H   H122      1.0  0.5955500000000001  0.83955  0.5587  1.0000
  H   H123      1.0  0.06917000000000026  0.55153  0.98085  1.0000
  H   H124      1.0  0.68145  0.12008999999999999  0.82717  1.0000
  H   H125      1.0  0.7944400000000004  0.8971000000000001  0.97927  1.0000
  H   H126      1.0  0.7619300000000001  0.31245000000000006  0.7141  1.0000
  H   H127      1.0  0.04403000000000005  0.2734700000000001  0.64731  1.0000
  H   H128      1.0  0.13823999999999997  0.51494  0.57534  1.0000
  H   H129      1.0  0.1572600000000003  0.5012400000000002  0.6683  1.0000
  H   H130      1.0  0.9706200000000003  0.42182000000000014  0.9406599999999999  1.0000
  H   H131      1.0  0.34954999999999997  0.46280999999999994  0.42864  1.0000
  H   H132      1.0  0.24908  0.32934  0.38093  1.0000
  H   H133      1.0  0.4584500000000001  0.04431  0.03715  1.0000
  H   H134      1.0  0.1248  0.10804000000000001  0.43982999999999994  1.0000
  H   H135      1.0  0.4197  0.58536  0.023059999999999994  1.0000
  H   H136      1.0  0.03034000000000004  0.20528000000000007  0.85974  1.0000
  H   H137      1.0  0.2611800000000002  0.5276400000000002  0.99505  1.0000
  H   H138      1.0  0.16861000000000004  0.26417  0.75318  1.0000
  H   H139      1.0  0.1996800000000001  0.24126000000000009  0.69455  1.0000
  H   H140      1.0  0.23797000000000015  0.4781300000000002  0.7545  1.0000
  H   H141      1.0  0.61144  0.92086  0.45091999999999993  1.0000
  H   H142      1.0  0.13746999999999998  0.33995  0.72499  1.0000
  H   H143      1.0  0.6289600000000001  0.8749400000000003  0.8800399999999999  1.0000
  H   H144      1.0  0.54093  0.04545000000000001  0.11717999999999999  1.0000
  H   H145      1.0  0.6086900000000002  0.9040700000000003  0.99101  1.0000
  H   H146      1.0  0.029130000000000055  0.23783  0.46196  1.0000
  H   H147      1.0  0.18555000000000008  0.6408500000000001  0.4375  1.0000
  H   H148      1.0  0.30312000000000017  0.5018400000000002  0.91731  1.0000
  H   H149      1.0  0.14010999999999998  0.34827  0.89065  1.0000
  H   H150      1.0  0.53042  0.027100000000000003  0.29278  1.0000
  H   H151      1.0  0.49174000000000007  0.9984400000000001  0.20675  1.0000
  H   H152      1.0  0.7390300000000002  0.9655100000000002  0.48954  1.0000
  H   H153      1.0  0.7533500000000001  0.16693  0.12753  1.0000
  H   H154      1.0  0.8928800000000002  0.036480000000000005  0.71304  1.0000
  H   H155      1.0  0.3792400000000002  0.7155600000000002  0.83725  1.0000
  H   H156      1.0  0.26986000000000016  0.5904600000000002  0.7831399999999998  1.0000
  H   H157      1.0  0.6657900000000002  0.9894500000000003  0.31919  1.0000
  H   H158      1.0  0.32625000000000004  0.84288  0.51599  1.0000
  H   H159      1.0  0.70305  0.17341000000000004  0.18234999999999998  1.0000
  H   H160      1.0  0.009230000000000089  0.34727000000000013  0.20658  1.0000
  H   H161      1.0  0.9536900000000001  0.029109999999999987  0.82318  1.0000
  H   H162      1.0  0.02554000000000009  0.2755400000000001  0.0985  1.0000
  H   H163      1.0  0.7227900000000004  0.9801100000000005  0.8117  1.0000
  H   H164      1.0  0.9681700000000003  0.03103000000000002  0.58435  1.0000
  H   H165      1.0  0.8362600000000002  0.9654600000000002  0.47024  1.0000
  H   H166      1.0  0.9030700000000002  0.19255000000000005  0.39175999999999994  1.0000
  H   H167      1.0  0.8167100000000002  0.8928100000000003  0.8637999999999998  1.0000
  H   H168      1.0  0.45106000000000024  0.7850800000000002  0.01903  1.0000
  H   H169      1.0  0.86175  0.11649000000000001  0.7715299999999999  1.0000
  H   H170      1.0  0.77219  0.07409000000000003  0.00416  1.0000
  H   H171      1.0  0.32787  0.68859  0.07505  1.0000
  H   H172      1.0  0.1705400000000001  0.70492  0.5429  1.0000
  H   H173      1.0  0.2272400000000001  0.19616000000000006  0.65342  1.0000
  H   H174      1.0  0.6250400000000005  0.9564000000000002  0.23453  1.0000
  H   H175      1.0  0.86885  0.21417000000000005  0.03398  1.0000
  H   H176      1.0  0.7850200000000002  0.15928000000000006  0.35502  1.0000
  H   H177      1.0  0.92703  0.012090000000000012  0.65585  1.0000
  H   H178      1.0  0.15706999999999996  0.55557  0.07627  1.0000
  H   H179      1.0  0.43995000000000023  0.8300300000000003  0.35899  1.0000
  H   H180      1.0  0.9587100000000003  0.35863000000000006  0.25917  1.0000
  H   H181      1.0  0.19980000000000003  0.14056  0.57602  1.0000
  H   H182      1.0  0.6673200000000001  0.26212  0.28035  1.0000
  H   H183      1.0  0.02138000000000011  0.4312400000000001  0.11072  1.0000
  H   H184      1.0  0.30697000000000035  0.7317900000000003  0.39698  1.0000
  H   H185      1.0  0.59923  0.73067  0.05445999999999999  1.0000
  H   H186      1.0  0.7072000000000004  0.8565  0.10743999999999998  1.0000
  H   H187      1.0  0.8184599999999999  0.09294  0.17704999999999999  1.0000
  H   H188      1.0  0.16045000000000015  0.4044500000000001  0.058699999999999995  1.0000
  H   H189      1.0  0.4484700000000002  0.9308300000000003  0.4808499999999999  1.0000
  H   H190      1.0  0.8799100000000001  0.3185500000000001  0.3271699999999999  1.0000
  H   H191      1.0  0.10290000000000013  0.2055600000000001  0.4792699999999999  1.0000
  H   H192      1.0  0.6875499999999998  0.23807  0.2141  1.0000
  H   H193      1.0  0.7265300000000003  0.9559700000000002  0.14731  1.0000
  H   H194      1.0  0.48505999999999994  0.86176  0.07534  1.0000
  H   H195      1.0  0.4987600000000003  0.8427400000000003  0.1683  1.0000
  H   H196      1.0  0.5781800000000001  0.02938000000000002  0.44066  1.0000
  H   H197      1.0  0.5371900000000002  0.6504500000000002  0.92864  1.0000
  H   H198      1.0  0.67066  0.75092  0.88093  1.0000
  H   H199      1.0  0.04431000000000013  0.45845000000000014  0.46285  1.0000
  H   H200      1.0  0.10804000000000002  0.1248  0.06017  1.0000
  H   H201      1.0  0.58536  0.4197  0.4769399999999999  1.0000
  H   H202      1.0  0.20528000000000002  0.03034000000000001  0.64026  1.0000
  H   H203      1.0  0.5276400000000002  0.26118000000000013  0.50495  1.0000
  H   H204      1.0  0.26417  0.16861  0.74682  1.0000
  H   H205      1.0  0.24126000000000014  0.19968000000000005  0.80545  1.0000
  H   H206      1.0  0.47813  0.23797000000000001  0.7454999999999999  1.0000
  H   H207      1.0  0.9208600000000003  0.6114400000000002  0.04907999999999999  1.0000
  H   H208      1.0  0.3399500000000001  0.13747000000000006  0.7750099999999998  1.0000
  H   H209      1.0  0.87494  0.62896  0.61996  1.0000
  H   H210      1.0  0.04545000000000024  0.5409300000000002  0.38282  1.0000
  H   H211      1.0  0.9040700000000005  0.6086900000000002  0.50899  1.0000
  H   H212      1.0  0.23783000000000007  0.029130000000000014  0.03804  1.0000
  H   H213      1.0  0.6408500000000001  0.18555000000000005  0.0625  1.0000
  H   H214      1.0  0.50184  0.30312  0.58269  1.0000
  H   H215      1.0  0.34827000000000014  0.14011000000000012  0.60935  1.0000
  H   H216      1.0  0.027099999999999926  0.53042  0.20722  1.0000
  H   H217      1.0  0.9984400000000002  0.49174000000000007  0.29325  1.0000
  H   H218      1.0  0.9655100000000002  0.7390300000000002  0.010459999999999999  1.0000
  H   H219      1.0  0.16693000000000016  0.7533500000000002  0.37247  1.0000
  H   H220      1.0  0.036480000000000165  0.8928800000000002  0.78696  1.0000
  H   H221      1.0  0.7155600000000003  0.3792400000000001  0.6627499999999998  1.0000
  H   H222      1.0  0.5904600000000002  0.2698600000000001  0.71686  1.0000
  H   H223      1.0  0.98945  0.6657900000000002  0.18080999999999997  1.0000
  H   H224      1.0  0.84288  0.32625999999999994  0.98401  1.0000
  H   H225      1.0  0.17341000000000018  0.7030500000000001  0.3176499999999999  1.0000
  H   H226      1.0  0.34727000000000013  0.009229999999999995  0.29342  1.0000
  H   H227      1.0  0.029110000000000098  0.9536900000000001  0.67682  1.0000
  H   H228      1.0  0.27554000000000006  0.02554  0.4015  1.0000
  H   H229      1.0  0.9801100000000001  0.72279  0.6883  1.0000
  H   H230      1.0  0.031030000000000106  0.9681700000000001  0.9156499999999999  1.0000
  H   H231      1.0  0.96546  0.83626  0.02976  1.0000
  H   H232      1.0  0.1925500000000002  0.9030700000000003  0.10824  1.0000
  H   H233      1.0  0.8928100000000003  0.8167100000000003  0.6362  1.0000
  H   H234      1.0  0.7850800000000002  0.45106  0.48097  1.0000
  H   H235      1.0  0.11649000000000019  0.8617500000000002  0.72847  1.0000
  H   H236      1.0  0.07409000000000004  0.7721900000000002  0.49584  1.0000
  H   H237      1.0  0.6885900000000003  0.32787  0.42495  1.0000
  H   H238      1.0  0.7049200000000002  0.17054000000000005  0.9570999999999998  1.0000
  H   H239      1.0  0.19615999999999997  0.22724000000000005  0.8465799999999998  1.0000
  H   H240      1.0  0.9564000000000001  0.6250400000000003  0.26547  1.0000
  H   H241      1.0  0.21417000000000003  0.8688500000000001  0.46602  1.0000
  H   H242      1.0  0.15928000000000014  0.7850200000000002  0.14498  1.0000
  H   H243      1.0  0.012090000000000033  0.92703  0.84415  1.0000
  H   H244      1.0  0.55557  0.15707000000000004  0.42373  1.0000
  H   H245      1.0  0.8300300000000002  0.43995000000000006  0.14101  1.0000
  H   H246      1.0  0.35863000000000006  0.9587100000000001  0.24083  1.0000
  H   H247      1.0  0.14056  0.1998  0.92398  1.0000
  H   H248      1.0  0.26212000000000013  0.66732  0.21964999999999998  1.0000
  H   H249      1.0  0.43124  0.02138  0.38928  1.0000
  H   H250      1.0  0.73179  0.30697  0.10302  1.0000
  H   H251      1.0  0.73067  0.59923  0.44553999999999994  1.0000
  H   H252      1.0  0.8565000000000003  0.7072  0.39256  1.0000
  H   H253      1.0  0.09294000000000024  0.8184600000000002  0.32295  1.0000
  H   H254      1.0  0.40445  0.16045  0.4413  1.0000
  H   H255      1.0  0.9308300000000003  0.4484700000000001  0.019149999999999997  1.0000
  H   H256      1.0  0.3185500000000001  0.8799100000000001  0.17282999999999998  1.0000
  H   H257      1.0  0.20556  0.1029  0.02073  1.0000
  H   H258      1.0  0.23807000000000017  0.68755  0.2859  1.0000
  H   H259      1.0  0.9559700000000001  0.72653  0.35269  1.0000
  H   H260      1.0  0.8617600000000003  0.4850600000000002  0.42466  1.0000
  H   H261      1.0  0.8427400000000003  0.49876  0.3317  1.0000
  H   H262      1.0  0.02938  0.57818  0.05934  1.0000
  H   H263      1.0  0.6504500000000002  0.5371900000000002  0.57136  1.0000
  H   H264      1.0  0.7509200000000001  0.6706600000000003  0.6190699999999999  1.0000
  C   C1        1.0  0.31939999999999996  0.967  0.6038  1.0000
  C   C2        1.0  0.9274000000000002  0.7404000000000002  0.16179999999999997  1.0000
  C   C3        1.0  0.4776000000000001  0.057000000000000016  0.6072  1.0000
  C   C4        1.0  0.7986  0.5728  0.1728  1.0000
  C   C5        1.0  0.7060000000000001  0.4200000000000002  0.9916  1.0000
  C   C6        1.0  0.6337  0.1761  0.5578  1.0000
  C   C7        1.0  0.07840000000000014  0.9140000000000003  0.2036  1.0000
  C   C8        1.0  0.88  0.7848000000000003  0.2673  1.0000
  C   C9        1.0  0.8614  0.7992  0.3019  1.0000
  C   C10       1.0  0.8022  0.5766  0.2239  1.0000
  C   C11       1.0  0.3307  0.0247  0.5615  1.0000
  C   C12       1.0  0.1478000000000001  0.8338000000000002  0.8917999999999998  1.0000
  C   C13       1.0  0.8634000000000003  0.6590000000000003  0.24169999999999997  1.0000
  C   C14       1.0  0.3793000000000001  0.17050000000000007  0.1144  1.0000
  C   C15       1.0  0.9966000000000004  0.6654000000000002  0.8934  1.0000
  C   C16       1.0  0.9716999999999999  0.8443  0.2634  1.0000
  C   C17       1.0  0.4696  0.0007999999999999805  0.8817  1.0000
  C   C18       1.0  0.17040000000000022  0.9224000000000002  0.558  1.0000
  C   C19       1.0  0.3803000000000001  0.1235  0.9871  1.0000
  C   C20       1.0  0.0007000000000000618  0.8205000000000002  0.5351  1.0000
  C   C21       1.0  0.9340000000000005  0.8734000000000002  0.3309  1.0000
  C   C22       1.0  0.8000000000000004  0.3274000000000001  0.539  1.0000
  C   C23       1.0  0.9313000000000001  0.7467000000000003  0.20959999999999998  1.0000
  C   C24       1.0  0.6922000000000001  0.4612000000000001  0.10909999999999999  1.0000
  C   C25       1.0  0.8608000000000002  0.6534  0.143  1.0000
  C   C26       1.0  0.45320000000000044  0.9902000000000004  0.7185  1.0000
  C   C27       1.0  0.475  0.005599999999999987  0.7707  1.0000
  C   C28       1.0  0.25430000000000025  0.9987000000000003  0.5392  1.0000
  C   C29       1.0  0.20570000000000022  0.7955000000000002  0.8457  1.0000
  C   C30       1.0  0.04579999999999998  0.922  0.2909  1.0000
  C   C31       1.0  0.6499000000000001  0.3427000000000001  0.1534  1.0000
  C   C32       1.0  0.8220000000000002  0.5030000000000002  0.9341999999999999  1.0000
  C   C33       1.0  0.4083000000000001  0.0007000000000000138  0.6847  1.0000
  C   C34       1.0  0.17300000000000001  0.7322  0.7744  1.0000
  C   C35       1.0  0.7099000000000002  0.4117000000000001  0.1829  1.0000
  C   C36       1.0  0.11380000000000018  0.7442000000000002  0.8389  1.0000
  C   C37       1.0  0.3730000000000001  0.013200000000000003  0.7026  1.0000
  C   C38       1.0  0.2416000000000001  0.07620000000000006  0.1571  1.0000
  C   C39       1.0  0.7214  0.21500000000000008  0.4964  1.0000
  C   C40       1.0  0.23580000000000007  0.791  0.8134  1.0000
  C   C41       1.0  0.051100000000000034  0.6863  0.7988  1.0000
  C   C42       1.0  0.09140000000000001  0.9798  0.17829999999999996  1.0000
  C   C43       1.0  0.9499000000000005  0.6685000000000002  0.9071999999999998  1.0000
  C   C44       1.0  0.2311  0.009900000000000003  0.1854  1.0000
  C   C45       1.0  0.26130000000000003  0.0009000000000000244  0.9264  1.0000
  C   C46       1.0  0.44640000000000013  0.02620000000000001  0.7866999999999998  1.0000
  C   C47       1.0  0.9723000000000004  0.9375000000000002  0.4073  1.0000
  C   C48       1.0  0.1065000000000002  0.9707000000000002  0.5303  1.0000
  C   C49       1.0  0.1560000000000003  0.8622  0.5972  1.0000
  C   C50       1.0  0.17440000000000003  0.06239999999999999  0.1541  1.0000
  C   C51       1.0  0.6024  0.2796  0.9785  1.0000
  C   C52       1.0  0.14709999999999995  0.9279  0.2092  1.0000
  C   C53       1.0  0.21810000000000013  0.9223000000000002  0.9609999999999999  1.0000
  C   C54       1.0  0.6712  0.3326  0.9473999999999999  1.0000
  C   C55       1.0  0.8079000000000002  0.2923  0.4817  1.0000
  C   C56       1.0  0.8271000000000001  0.8439000000000002  0.3685  1.0000
  C   C57       1.0  0.39490000000000003  0.03009999999999999  0.7539  1.0000
  C   C58       1.0  0.1605000000000001  0.8383000000000002  0.9432  1.0000
  C   C59       1.0  0.22639999999999996  0.8824  0.6191  1.0000
  C   C60       1.0  0.025000000000000248  0.9364000000000002  0.3255  1.0000
  C   C61       1.0  0.8696000000000003  0.5014000000000002  0.9193999999999998  1.0000
  C   C62       1.0  0.5584  0.14780000000000001  0.6176  1.0000
  C   C63       1.0  0.08210000000000003  0.6803000000000001  0.7669999999999999  1.0000
  C   C64       1.0  0.8440000000000002  0.876  0.4115  1.0000
  C   C65       1.0  0.2890000000000001  0.7306000000000002  0.7188999999999999  1.0000
  C   C66       1.0  0.9514000000000002  0.5754000000000002  0.8992999999999998  1.0000
  C   C67       1.0  0.6378000000000001  0.2076  0.5942  1.0000
  C   C68       1.0  0.38580000000000014  0.21920000000000012  0.9515  1.0000
  C   C69       1.0  0.3251  0.1489  0.9232  1.0000
  C   C70       1.0  0.19  0.9102000000000001  0.8576999999999998  1.0000
  C   C71       1.0  0.8663  0.5897000000000003  0.9293999999999998  1.0000
  C   C72       1.0  0.5544000000000001  0.08960000000000004  0.5447  1.0000
  C   C73       1.0  0.16950000000000012  0.6987000000000002  0.6923999999999999  1.0000
  C   C74       1.0  0.9611000000000001  0.8393  0.5249  1.0000
  C   C75       1.0  0.27640000000000015  0.7428000000000002  0.7546  1.0000
  C   C76       1.0  0.24569999999999975  0.9924999999999999  0.8759999999999998  1.0000
  C   C77       1.0  0.502  0.10440000000000002  0.9038  1.0000
  C   C78       1.0  0.49270000000000014  0.11410000000000005  0.8529  1.0000
  C   C79       1.0  0.4769  0.030700000000000022  0.569  1.0000
  C   C80       1.0  0.4277000000000002  0.2909000000000001  0.088  1.0000
  C   C81       1.0  0.3538  0.23580000000000007  0.1146  1.0000
  C   C82       1.0  0.967  0.3194  0.8962  1.0000
  C   C83       1.0  0.7404000000000001  0.9274  0.3382  1.0000
  C   C84       1.0  0.05700000000000003  0.4776000000000001  0.8928  1.0000
  C   C85       1.0  0.5728000000000002  0.7986000000000002  0.32719999999999994  1.0000
  C   C86       1.0  0.4200000000000002  0.7060000000000002  0.5084  1.0000
  C   C87       1.0  0.17610000000000003  0.6337  0.9422  1.0000
  C   C88       1.0  0.914  0.0784  0.2964  1.0000
  C   C89       1.0  0.7848000000000002  0.88  0.2327  1.0000
  C   C90       1.0  0.7992000000000001  0.8614  0.19809999999999994  1.0000
  C   C91       1.0  0.5766000000000001  0.8022  0.2761  1.0000
  C   C92       1.0  0.024700000000000024  0.3307  0.9385  1.0000
  C   C93       1.0  0.8338  0.14780000000000001  0.6082  1.0000
  C   C94       1.0  0.6590000000000003  0.8634  0.2583  1.0000
  C   C95       1.0  0.1705000000000001  0.3793  0.3856  1.0000
  C   C96       1.0  0.6654000000000001  0.9966000000000003  0.6066  1.0000
  C   C97       1.0  0.8443000000000002  0.9717000000000002  0.2366  1.0000
  C   C98       1.0  0.0007999999999999675  0.4696  0.6183  1.0000
  C   C99       1.0  0.9224  0.17040000000000008  0.9419999999999998  1.0000
  C   C100      1.0  0.12350000000000001  0.3803  0.5129  1.0000
  C   C101      1.0  0.8205000000000001  0.0007000000000000292  0.9648999999999998  1.0000
  C   C102      1.0  0.8734000000000003  0.9340000000000003  0.1691  1.0000
  C   C103      1.0  0.32740000000000014  0.8000000000000003  0.9609999999999999  1.0000
  C   C104      1.0  0.7467000000000001  0.9313  0.2904  1.0000
  C   C105      1.0  0.4612  0.6922  0.3909  1.0000
  C   C106      1.0  0.6534000000000002  0.8608000000000001  0.357  1.0000
  C   C107      1.0  0.9902000000000004  0.45319999999999994  0.7815  1.0000
  C   C108      1.0  0.0056000000000002055  0.47500000000000014  0.7292999999999998  1.0000
  C   C109      1.0  0.9987000000000001  0.25430000000000014  0.9608  1.0000
  C   C110      1.0  0.7955  0.2057  0.6543  1.0000
  C   C111      1.0  0.9220000000000003  0.0458  0.2091  1.0000
  C   C112      1.0  0.3427000000000001  0.6499000000000001  0.3466  1.0000
  C   C113      1.0  0.5030000000000002  0.8220000000000002  0.5658  1.0000
  C   C114      1.0  0.0007000000000000618  0.4083  0.8153  1.0000
  C   C115      1.0  0.7321999999999999  0.17300000000000001  0.7256  1.0000
  C   C116      1.0  0.4117000000000003  0.7099000000000002  0.3171  1.0000
  C   C117      1.0  0.7442000000000003  0.11380000000000004  0.6611  1.0000
  C   C118      1.0  0.013200000000000005  0.373  0.7974  1.0000
  C   C119      1.0  0.07620000000000011  0.2416000000000001  0.3429  1.0000
  C   C120      1.0  0.21499999999999997  0.7214  0.0035999999999999995  1.0000
  C   C121      1.0  0.7910000000000003  0.23580000000000015  0.6865999999999998  1.0000
  C   C122      1.0  0.6863  0.051100000000000007  0.7012  1.0000
  C   C123      1.0  0.9798  0.09139999999999998  0.3217  1.0000
  C   C124      1.0  0.6685  0.9499  0.5928  1.0000
  C   C125      1.0  0.009900000000000013  0.23110000000000006  0.3145999999999999  1.0000
  C   C126      1.0  0.0009000000000000897  0.2613000000000001  0.5736  1.0000
  C   C127      1.0  0.026200000000000053  0.4464000000000001  0.7133  1.0000
  C   C128      1.0  0.9375000000000002  0.9723000000000002  0.0927  1.0000
  C   C129      1.0  0.9707000000000001  0.10649999999999998  0.9697  1.0000
  C   C130      1.0  0.8622000000000001  0.156  0.9028  1.0000
  C   C131      1.0  0.06239999999999999  0.1744  0.3459  1.0000
  C   C132      1.0  0.2796000000000003  0.6024000000000003  0.5215  1.0000
  C   C133      1.0  0.9279000000000001  0.1471  0.2908  1.0000
  C   C134      1.0  0.9223000000000001  0.21810000000000002  0.539  1.0000
  C   C135      1.0  0.3326  0.6712  0.5526  1.0000
  C   C136      1.0  0.2923000000000001  0.8079000000000002  0.0183  1.0000
  C   C137      1.0  0.8439  0.8271  0.1315  1.0000
  C   C138      1.0  0.030100000000000095  0.3949000000000001  0.7461  1.0000
  C   C139      1.0  0.8383  0.16050000000000006  0.5568  1.0000
  C   C140      1.0  0.8824000000000002  0.22640000000000007  0.8809  1.0000
  C   C141      1.0  0.9364000000000001  0.025000000000000012  0.1745  1.0000
  C   C142      1.0  0.5014000000000003  0.8696000000000002  0.5806  1.0000
  C   C143      1.0  0.1478000000000001  0.5584000000000002  0.8823999999999997  1.0000
  C   C144      1.0  0.6803000000000002  0.08209999999999999  0.733  1.0000
  C   C145      1.0  0.876  0.8440000000000002  0.0885  1.0000
  C   C146      1.0  0.7306000000000001  0.28900000000000015  0.7811  1.0000
  C   C147      1.0  0.5754  0.9514  0.6007  1.0000
  C   C148      1.0  0.20760000000000003  0.6378000000000001  0.9057999999999998  1.0000
  C   C149      1.0  0.21920000000000014  0.38580000000000014  0.5485  1.0000
  C   C150      1.0  0.14890000000000012  0.3251000000000001  0.5768  1.0000
  C   C151      1.0  0.9102  0.19000000000000006  0.6423  1.0000
  C   C152      1.0  0.5897  0.8663  0.5706  1.0000
  C   C153      1.0  0.08960000000000018  0.5544000000000002  0.9552999999999998  1.0000
  C   C154      1.0  0.6987000000000002  0.1695  0.8076  1.0000
  C   C155      1.0  0.8393000000000003  0.9611000000000002  0.9751  1.0000
  C   C156      1.0  0.7428  0.27640000000000015  0.7453999999999997  1.0000
  C   C157      1.0  0.9925000000000002  0.24570000000000003  0.624  1.0000
  C   C158      1.0  0.10440000000000023  0.5020000000000002  0.5962  1.0000
  C   C159      1.0  0.11410000000000019  0.4927000000000001  0.6471  1.0000
  C   C160      1.0  0.03070000000000014  0.47689999999999994  0.931  1.0000
  C   C161      1.0  0.29090000000000016  0.42770000000000014  0.4119999999999999  1.0000
  C   C162      1.0  0.23580000000000012  0.3538000000000001  0.3854  1.0000
  C   C163      1.0  0.6806000000000001  0.03300000000000003  0.3961999999999999  1.0000
  C   C164      1.0  0.07260000000000008  0.2596000000000001  0.8382  1.0000
  C   C165      1.0  0.5224000000000001  0.9430000000000001  0.39279999999999987  1.0000
  C   C166      1.0  0.20140000000000008  0.4272000000000001  0.8272  1.0000
  C   C167      1.0  0.2940000000000001  0.5800000000000001  0.0084  1.0000
  C   C168      1.0  0.3663  0.8239000000000001  0.4422  1.0000
  C   C169      1.0  0.9216000000000001  0.08600000000000003  0.7963999999999999  1.0000
  C   C170      1.0  0.12000000000000006  0.21520000000000003  0.7327  1.0000
  C   C171      1.0  0.1386  0.2008  0.6981  1.0000
  C   C172      1.0  0.19779999999999998  0.42339999999999994  0.7761  1.0000
  C   C173      1.0  0.6693000000000002  0.9753000000000001  0.4385  1.0000
  C   C174      1.0  0.8522  0.1662  0.10819999999999998  1.0000
  C   C175      1.0  0.1366000000000001  0.34100000000000014  0.7583  1.0000
  C   C176      1.0  0.6207  0.8295  0.8856  1.0000
  C   C177      1.0  0.0034000000000000063  0.3346  0.1066  1.0000
  C   C178      1.0  0.028300000000000058  0.15570000000000012  0.7366  1.0000
  C   C179      1.0  0.5304000000000002  0.9992000000000002  0.1183  1.0000
  C   C180      1.0  0.8296000000000004  0.0776  0.442  1.0000
  C   C181      1.0  0.6197000000000003  0.8765  0.0129  1.0000
  C   C182      1.0  0.9993  0.1795  0.4648999999999999  1.0000
  C   C183      1.0  0.06599999999999999  0.12660000000000005  0.6690999999999999  1.0000
  C   C184      1.0  0.20000000000000004  0.6726  0.46099999999999997  1.0000
  C   C185      1.0  0.06870000000000001  0.2533  0.7904  1.0000
  C   C186      1.0  0.30780000000000024  0.5388000000000002  0.8909  1.0000
  C   C187      1.0  0.13920000000000016  0.34660000000000024  0.8569999999999999  1.0000
  C   C188      1.0  0.5468000000000001  0.0098  0.2815  1.0000
  C   C189      1.0  0.5250000000000002  0.9944  0.2293  1.0000
  C   C190      1.0  0.7457  0.0013000000000000147  0.46079999999999993  1.0000
  C   C191      1.0  0.7943  0.20450000000000004  0.1543  1.0000
  C   C192      1.0  0.9542  0.07800000000000001  0.7091  1.0000
  C   C193      1.0  0.3501  0.6573  0.8465999999999998  1.0000
  C   C194      1.0  0.17800000000000013  0.4970000000000001  0.0658  1.0000
  C   C195      1.0  0.5917  0.9993  0.3153  1.0000
  C   C196      1.0  0.8270000000000001  0.26780000000000004  0.2256  1.0000
  C   C197      1.0  0.29009999999999997  0.5883  0.8171  1.0000
  C   C198      1.0  0.8862  0.2558  0.1611  1.0000
  C   C199      1.0  0.6270000000000002  0.9868000000000002  0.2974  1.0000
  C   C200      1.0  0.7584000000000002  0.9238000000000002  0.8429  1.0000
  C   C201      1.0  0.27860000000000007  0.785  0.5036  1.0000
  C   C202      1.0  0.7642000000000001  0.209  0.1866  1.0000
  C   C203      1.0  0.9489000000000002  0.31370000000000015  0.2012  1.0000
  C   C204      1.0  0.9086000000000001  0.020200000000000003  0.8217  1.0000
  C   C205      1.0  0.05010000000000011  0.33150000000000013  0.0928  1.0000
  C   C206      1.0  0.7689000000000005  0.9901000000000004  0.8146  1.0000
  C   C207      1.0  0.7387000000000004  0.9991000000000002  0.0736  1.0000
  C   C208      1.0  0.5536000000000003  0.9738000000000001  0.2133  1.0000
  C   C209      1.0  0.027700000000000075  0.06250000000000006  0.5927  1.0000
  C   C210      1.0  0.8935  0.029299999999999996  0.4697  1.0000
  C   C211      1.0  0.8440000000000002  0.1378  0.4028  1.0000
  C   C212      1.0  0.8256000000000002  0.9376000000000001  0.8458999999999999  1.0000
  C   C213      1.0  0.3976  0.7204  0.02149999999999999  1.0000
  C   C214      1.0  0.8529  0.07210000000000005  0.7908  1.0000
  C   C215      1.0  0.7819000000000002  0.0777  0.039  1.0000
  C   C216      1.0  0.3288000000000002  0.6674000000000002  0.052599999999999994  1.0000
  C   C217      1.0  0.1921000000000001  0.7077  0.5183  1.0000
  C   C218      1.0  0.17290000000000003  0.15610000000000004  0.6315  1.0000
  C   C219      1.0  0.6051000000000001  0.9699000000000001  0.24609999999999999  1.0000
  C   C220      1.0  0.8395000000000002  0.16170000000000007  0.0568  1.0000
  C   C221      1.0  0.7736000000000002  0.11760000000000001  0.3809  1.0000
  C   C222      1.0  0.9750000000000001  0.0636  0.6745  1.0000
  C   C223      1.0  0.13040000000000015  0.4986000000000001  0.0806  1.0000
  C   C224      1.0  0.4416000000000001  0.8522000000000002  0.3823999999999999  1.0000
  C   C225      1.0  0.9179  0.3197  0.23299999999999998  1.0000
  C   C226      1.0  0.156  0.124  0.5885  1.0000
  C   C227      1.0  0.7110000000000004  0.2694  0.2811  1.0000
  C   C228      1.0  0.0485999999999999  0.4246  0.1007  1.0000
  C   C229      1.0  0.3622  0.7924  0.4058  1.0000
  C   C230      1.0  0.6142000000000002  0.7808000000000003  0.048499999999999995  1.0000
  C   C231      1.0  0.6749000000000003  0.8511  0.0768  1.0000
  C   C232      1.0  0.81  0.08980000000000002  0.1423  1.0000
  C   C233      1.0  0.13370000000000015  0.4103000000000001  0.0706  1.0000
  C   C234      1.0  0.4456000000000002  0.9104000000000002  0.4553  1.0000
  C   C235      1.0  0.8305000000000002  0.3013  0.3076  1.0000
  C   C236      1.0  0.03889999999999999  0.1607  0.4751  1.0000
  C   C237      1.0  0.7236000000000001  0.2572  0.2454  1.0000
  C   C238      1.0  0.7543000000000002  0.007499999999999999  0.124  1.0000
  C   C239      1.0  0.4980000000000001  0.8956  0.0962  1.0000
  C   C240      1.0  0.5073000000000002  0.8859  0.1471  1.0000
  C   C241      1.0  0.5231000000000001  0.9693000000000003  0.4309999999999999  1.0000
  C   C242      1.0  0.5723000000000003  0.7091000000000002  0.912  1.0000
  C   C243      1.0  0.6462000000000003  0.7642000000000002  0.8854  1.0000
  C   C244      1.0  0.03300000000000014  0.6806000000000002  0.1038  1.0000
  C   C245      1.0  0.25960000000000005  0.07260000000000005  0.6618  1.0000
  C   C246      1.0  0.943  0.5224  0.1072  1.0000
  C   C247      1.0  0.4272  0.2014  0.6728  1.0000
  C   C248      1.0  0.58  0.294  0.49159999999999987  1.0000
  C   C249      1.0  0.8239  0.36630000000000007  0.05779999999999999  1.0000
  C   C250      1.0  0.0859999999999999  0.9216  0.7036  1.0000
  C   C251      1.0  0.21519999999999997  0.12000000000000006  0.7672999999999998  1.0000
  C   C252      1.0  0.20080000000000003  0.1386  0.8019  1.0000
  C   C253      1.0  0.42340000000000005  0.1978000000000001  0.7238999999999998  1.0000
  C   C254      1.0  0.9753  0.6693000000000002  0.06149999999999999  1.0000
  C   C255      1.0  0.16620000000000007  0.8522000000000002  0.3918  1.0000
  C   C256      1.0  0.341  0.1366  0.7417  1.0000
  C   C257      1.0  0.8295  0.6207  0.6144  1.0000
  C   C258      1.0  0.3346  0.003399999999999994  0.3934  1.0000
  C   C259      1.0  0.15570000000000003  0.028300000000000037  0.7633999999999999  1.0000
  C   C260      1.0  0.9992000000000002  0.5304000000000002  0.38169999999999993  1.0000
  C   C261      1.0  0.07760000000000017  0.8296  0.05799999999999999  1.0000
  C   C262      1.0  0.8765000000000002  0.6197  0.4871  1.0000
  C   C263      1.0  0.17950000000000002  0.9993  0.0351  1.0000
  C   C264      1.0  0.1266  0.066  0.8309  1.0000
  C   C265      1.0  0.6726  0.20000000000000007  0.039  1.0000
  C   C266      1.0  0.2533  0.06870000000000001  0.7095999999999999  1.0000
  C   C267      1.0  0.5388000000000002  0.30780000000000013  0.6091  1.0000
  C   C268      1.0  0.3466  0.13920000000000002  0.643  1.0000
  C   C269      1.0  0.009800000000000215  0.5468000000000002  0.2185  1.0000
  C   C270      1.0  0.9944000000000004  0.5250000000000002  0.2707  1.0000
  C   C271      1.0  0.0013000000000001457  0.7457000000000003  0.0392  1.0000
  C   C272      1.0  0.2044999999999999  0.7943  0.3457  1.0000
  C   C273      1.0  0.07800000000000008  0.9542000000000002  0.7909  1.0000
  C   C274      1.0  0.6573000000000001  0.35010000000000013  0.6534  1.0000
  C   C275      1.0  0.4970000000000001  0.17800000000000007  0.43419999999999986  1.0000
  C   C276      1.0  0.9993000000000003  0.5917000000000001  0.1847  1.0000
  C   C277      1.0  0.26780000000000026  0.8270000000000002  0.2744  1.0000
  C   C278      1.0  0.5883  0.2901  0.6829  1.0000
  C   C279      1.0  0.25580000000000025  0.8862000000000002  0.3389  1.0000
  C   C280      1.0  0.9868000000000002  0.627  0.20259999999999997  1.0000
  C   C281      1.0  0.9238000000000003  0.7584000000000002  0.6571  1.0000
  C   C282      1.0  0.7850000000000003  0.2786  0.9964  1.0000
  C   C283      1.0  0.2090000000000002  0.7642000000000002  0.31339999999999996  1.0000
  C   C284      1.0  0.31370000000000015  0.9489  0.2988  1.0000
  C   C285      1.0  0.020200000000000152  0.9086000000000002  0.6783  1.0000
  C   C286      1.0  0.3315  0.0501  0.4072  1.0000
  C   C287      1.0  0.9901  0.7689  0.6854  1.0000
  C   C288      1.0  0.9991000000000003  0.7387000000000002  0.4264  1.0000
  C   C289      1.0  0.9738000000000002  0.5536  0.2867  1.0000
  C   C290      1.0  0.06249999999999999  0.02769999999999999  0.9073  1.0000
  C   C291      1.0  0.02930000000000009  0.8935000000000002  0.030299999999999994  1.0000
  C   C292      1.0  0.13780000000000014  0.8440000000000002  0.0972  1.0000
  C   C293      1.0  0.9376  0.8256  0.6541  1.0000
  C   C294      1.0  0.7204000000000003  0.39760000000000006  0.47849999999999987  1.0000
  C   C295      1.0  0.0721000000000003  0.8529000000000002  0.7092  1.0000
  C   C296      1.0  0.07770000000000007  0.7819000000000003  0.46099999999999997  1.0000
  C   C297      1.0  0.6674000000000001  0.3288000000000001  0.4474  1.0000
  C   C298      1.0  0.7077000000000001  0.19210000000000002  0.9817  1.0000
  C   C299      1.0  0.1561  0.17290000000000005  0.8684999999999998  1.0000
  C   C300      1.0  0.9699  0.6051  0.2539  1.0000
  C   C301      1.0  0.16170000000000012  0.8395000000000002  0.4431999999999999  1.0000
  C   C302      1.0  0.11760000000000013  0.7736000000000002  0.11909999999999998  1.0000
  C   C303      1.0  0.06360000000000009  0.9750000000000001  0.8254999999999999  1.0000
  C   C304      1.0  0.49860000000000004  0.1304  0.4194  1.0000
  C   C305      1.0  0.8522  0.4416000000000001  0.1176  1.0000
  C   C306      1.0  0.31970000000000015  0.9179000000000003  0.267  1.0000
  C   C307      1.0  0.12399999999999997  0.15600000000000006  0.9114999999999998  1.0000
  C   C308      1.0  0.26940000000000025  0.7110000000000002  0.2189  1.0000
  C   C309      1.0  0.42460000000000003  0.04860000000000002  0.3993  1.0000
  C   C310      1.0  0.7924000000000002  0.3622  0.0942  1.0000
  C   C311      1.0  0.7808000000000003  0.6142000000000001  0.4515  1.0000
  C   C312      1.0  0.8511  0.6749  0.4232  1.0000
  C   C313      1.0  0.08980000000000021  0.81  0.35769999999999996  1.0000
  C   C314      1.0  0.4103  0.13370000000000004  0.42939999999999995  1.0000
  C   C315      1.0  0.9104000000000001  0.4456  0.0447  1.0000
  C   C316      1.0  0.3013  0.8305  0.1924  1.0000
  C   C317      1.0  0.1607  0.03890000000000001  0.0249  1.0000
  C   C318      1.0  0.25720000000000015  0.7236000000000002  0.2546  1.0000
  C   C319      1.0  0.007500000000000002  0.7543  0.376  1.0000
  C   C320      1.0  0.8956000000000001  0.49799999999999994  0.4038  1.0000
  C   C321      1.0  0.8858999999999999  0.5073  0.3529  1.0000
  C   C322      1.0  0.9693000000000003  0.5231000000000001  0.069  1.0000
  C   C323      1.0  0.7091000000000001  0.5723  0.588  1.0000
  C   C324      1.0  0.7642000000000001  0.6462000000000001  0.6145999999999999  1.0000
  S   S1        1.0  0.47761000000000003  0.10663  0.11885  1.0000
  S   S2        1.0  0.1066300000000001  0.4776100000000001  0.38114999999999993  1.0000
  S   S3        1.0  0.5223900000000002  0.8933700000000002  0.88115  1.0000
  S   S4        1.0  0.8933700000000002  0.52239  0.61885  1.0000
  N   N1        1.0  0.09610000000000005  0.9057000000000002  0.5406  1.0000
  N   N2        1.0  0.7174  0.2378000000000001  0.532  1.0000
  N   N3        1.0  0.7376400000000002  0.48676  0.1555  1.0000
  N   N4        1.0  0.7388000000000002  0.4244000000000001  0.9566999999999998  1.0000
  N   N5        1.0  0.467  0.0444  0.8379  1.0000
  N   N6        1.0  0.6386000000000001  0.3736000000000001  0.10599999999999997  1.0000
  N   N7        1.0  0.8604999999999999  0.3660999999999999  0.507  1.0000
  N   N8        1.0  0.42280000000000006  0.204  0.992  1.0000
  N   N9        1.0  0.6239000000000001  0.3353  0.004999999999999998  1.0000
  N   N10       1.0  0.9112000000000003  0.8862000000000002  0.3664  1.0000
  N   N11       1.0  0.9956000000000002  0.8316  0.2292  1.0000
  N   N12       1.0  0.48950000000000005  0.0361  0.921  1.0000
  N   N13       1.0  0.3172000000000001  0.08740000000000006  0.9447  1.0000
  N   N14       1.0  0.3949  0.9939  0.6309  1.0000
  N   N15       1.0  0.32480000000000003  0.1608  0.1323  1.0000
  N   N16       1.0  0.9314100000000003  0.9339900000000002  0.4327  1.0000
  N   N17       1.0  0.025299999999999965  0.9319  0.5211  1.0000
  N   N18       1.0  0.08550000000000008  0.7477000000000003  0.8741999999999998  1.0000
  N   N19       1.0  0.4422000000000001  0.24920000000000003  0.0894  1.0000
  N   N20       1.0  0.20540000000000005  0.725  0.7425999999999998  1.0000
  N   N21       1.0  0.2234  0.7044  0.6789  1.0000
  N   N22       1.0  0.9057000000000002  0.09610000000000002  0.9594  1.0000
  N   N23       1.0  0.23780000000000034  0.7174000000000004  0.968  1.0000
  N   N24       1.0  0.4867600000000002  0.7376400000000002  0.3445  1.0000
  N   N25       1.0  0.4244  0.7388  0.5433  1.0000
  N   N26       1.0  0.0444  0.4670000000000001  0.6621  1.0000
  N   N27       1.0  0.3736000000000002  0.6386000000000002  0.394  1.0000
  N   N28       1.0  0.3661000000000001  0.8605000000000003  0.9929999999999999  1.0000
  N   N29       1.0  0.20400000000000013  0.42280000000000006  0.508  1.0000
  N   N30       1.0  0.33530000000000026  0.6239000000000002  0.495  1.0000
  N   N31       1.0  0.8862000000000001  0.9112  0.1336  1.0000
  N   N32       1.0  0.8316000000000002  0.9956000000000003  0.2708  1.0000
  N   N33       1.0  0.036100000000000174  0.48950000000000016  0.579  1.0000
  N   N34       1.0  0.08739999999999999  0.3172  0.5553  1.0000
  N   N35       1.0  0.9939000000000003  0.3949000000000001  0.8691  1.0000
  N   N36       1.0  0.16080000000000005  0.3248  0.3677  1.0000
  N   N37       1.0  0.9339900000000001  0.93141  0.0673  1.0000
  N   N38       1.0  0.9319000000000002  0.025300000000000048  0.9788999999999998  1.0000
  N   N39       1.0  0.7477  0.0855  0.6258  1.0000
  N   N40       1.0  0.24920000000000012  0.4422  0.41059999999999997  1.0000
  N   N41       1.0  0.7250000000000001  0.20540000000000005  0.7574  1.0000
  N   N42       1.0  0.7044  0.22340000000000002  0.8211  1.0000
  N   N43       1.0  0.9039000000000001  0.09429999999999998  0.4594  1.0000
  N   N44       1.0  0.2826000000000002  0.7622000000000002  0.46799999999999997  1.0000
  N   N45       1.0  0.26236000000000015  0.5132400000000003  0.8444999999999999  1.0000
  N   N46       1.0  0.2612  0.5756  0.0433  1.0000
  N   N47       1.0  0.5330000000000004  0.9556000000000002  0.1621  1.0000
  N   N48       1.0  0.3614000000000002  0.6264000000000002  0.8939999999999999  1.0000
  N   N49       1.0  0.13949999999999999  0.6339  0.493  1.0000
  N   N50       1.0  0.5772000000000004  0.7960000000000003  0.008  1.0000
  N   N51       1.0  0.3761  0.6647  0.995  1.0000
  N   N52       1.0  0.08880000000000003  0.11380000000000003  0.6335999999999999  1.0000
  N   N53       1.0  0.004400000000000002  0.16840000000000002  0.7708  1.0000
  N   N54       1.0  0.5105000000000003  0.9639000000000002  0.079  1.0000
  N   N55       1.0  0.6828000000000003  0.9126000000000002  0.0553  1.0000
  N   N56       1.0  0.6051000000000001  0.006100000000000006  0.3691  1.0000
  N   N57       1.0  0.6752000000000005  0.8392000000000002  0.8677  1.0000
  N   N58       1.0  0.06859000000000003  0.06601000000000001  0.5673  1.0000
  N   N59       1.0  0.9747000000000002  0.06810000000000002  0.47889999999999994  1.0000
  N   N60       1.0  0.9145  0.2523  0.1258  1.0000
  N   N61       1.0  0.5578  0.7508  0.9106  1.0000
  N   N62       1.0  0.7946  0.2750000000000001  0.2574  1.0000
  N   N63       1.0  0.7766  0.2956000000000001  0.32109999999999994  1.0000
  N   N64       1.0  0.09430000000000001  0.9039  0.0406  1.0000
  N   N65       1.0  0.7622000000000002  0.28260000000000013  0.032  1.0000
  N   N66       1.0  0.51324  0.26236  0.6555  1.0000
  N   N67       1.0  0.5756000000000002  0.2612000000000001  0.4567  1.0000
  N   N68       1.0  0.9556000000000002  0.5330000000000003  0.3379  1.0000
  N   N69       1.0  0.6264000000000001  0.36140000000000005  0.606  1.0000
  N   N70       1.0  0.6339000000000001  0.1395  0.007  1.0000
  N   N71       1.0  0.7960000000000003  0.5772  0.49199999999999994  1.0000
  N   N72       1.0  0.6647000000000001  0.37610000000000005  0.505  1.0000
  N   N73       1.0  0.11380000000000001  0.0888  0.8664  1.0000
  N   N74       1.0  0.16840000000000005  0.004400000000000001  0.7292  1.0000
  N   N75       1.0  0.9639000000000002  0.5105  0.421  1.0000
  N   N76       1.0  0.9126000000000002  0.6828  0.4447  1.0000
  N   N77       1.0  0.006100000000000023  0.6051  0.1309  1.0000
  N   N78       1.0  0.8392000000000003  0.6752000000000002  0.6323  1.0000
  N   N79       1.0  0.06600999999999997  0.06859000000000003  0.9326999999999999  1.0000
  N   N80       1.0  0.06810000000000017  0.9747000000000002  0.021099999999999997  1.0000
  N   N81       1.0  0.25230000000000025  0.9145000000000002  0.3742  1.0000
  N   N82       1.0  0.7508  0.5578000000000002  0.5894  1.0000
  N   N83       1.0  0.27500000000000024  0.7946000000000002  0.24259999999999998  1.0000
  N   N84       1.0  0.2956000000000003  0.7766000000000002  0.1789  1.0000
  O   O1        1.0  0.4913900000000001  0.17561000000000004  0.0819  1.0000
  O   O2        1.0  0.5705100000000001  0.15089000000000005  0.1318  1.0000
  O   O3        1.0  0.4103  0.019700000000000006  0.09259999999999999  1.0000
  O   O4        1.0  0.5600700000000001  0.9739300000000001  0.991  1.0000
  O   O5        1.0  0.8705300000000005  0.8806700000000002  0.5328  1.0000
  O   O6        1.0  0.5687900000000001  0.40501000000000004  0.0057  1.0000
  O   O7        1.0  0.4387000000000001  0.0817  0.1649  1.0000
  O   O8        1.0  0.17561000000000004  0.4913900000000001  0.4180999999999999  1.0000
  O   O9        1.0  0.15089  0.57051  0.3682  1.0000
  O   O10       1.0  0.01970000000000012  0.4103000000000001  0.4074  1.0000
  O   O11       1.0  0.9739300000000003  0.5600700000000002  0.509  1.0000
  O   O12       1.0  0.8806700000000002  0.8705300000000002  0.9672  1.0000
  O   O13       1.0  0.4050099999999999  0.56879  0.4942999999999999  1.0000
  O   O14       1.0  0.08169999999999998  0.4387000000000001  0.33509999999999995  1.0000
  O   O15       1.0  0.5086100000000003  0.8243900000000002  0.9181  1.0000
  O   O16       1.0  0.42949  0.84911  0.8682  1.0000
  O   O17       1.0  0.5897000000000002  0.9802999999999998  0.9074  1.0000
  O   O18       1.0  0.43993  0.02607  0.009  1.0000
  O   O19       1.0  0.12947  0.11933  0.4672  1.0000
  O   O20       1.0  0.4312100000000002  0.5949900000000004  0.9942999999999997  1.0000
  O   O21       1.0  0.5613000000000004  0.9183000000000002  0.8350999999999998  1.0000
  O   O22       1.0  0.82439  0.5086100000000002  0.5819  1.0000
  O   O23       1.0  0.8491100000000003  0.4294900000000001  0.6317999999999999  1.0000
  O   O24       1.0  0.9803000000000005  0.5897000000000002  0.5926  1.0000
  O   O25       1.0  0.026070000000000117  0.4399300000000001  0.491  1.0000
  O   O26       1.0  0.11933000000000003  0.12947  0.0328  1.0000
  O   O27       1.0  0.59499  0.43121  0.5057  1.0000
  O   O28       1.0  0.9183  0.5613  0.6649  1.0000
  Se  Se1       1.0  0.3492  0.2386000000000001  0.4713499999999999  1.0000
  O   O29       1.0  0.28470000000000006  0.19930000000000003  0.5124  1.0000
  O   O30       1.0  0.27380000000000004  0.14760000000000004  0.4345  1.0000
  O   O31       1.0  0.4294000000000001  0.25680000000000003  0.5017  1.0000
  O   O32       1.0  0.3946  0.3422  0.4343999999999999  1.0000
  Se  Se2       1.0  0.2386  0.3492  0.02865  1.0000
  O   O33       1.0  0.19930000000000003  0.28470000000000006  0.9875999999999999  1.0000
  O   O34       1.0  0.14760000000000006  0.2738  0.0655  1.0000
  O   O35       1.0  0.2568  0.4294000000000001  0.9982999999999997  1.0000
  O   O36       1.0  0.3422000000000002  0.3946000000000001  0.0656  1.0000
  Se  Se3       1.0  0.6508000000000002  0.7614000000000002  0.52865  1.0000
  O   O37       1.0  0.7153000000000002  0.8007  0.4876  1.0000
  O   O38       1.0  0.7262000000000001  0.8524000000000003  0.5655  1.0000
  O   O39       1.0  0.5706000000000001  0.7432000000000002  0.49829999999999997  1.0000
  O   O40       1.0  0.6054000000000002  0.6578  0.5656  1.0000
  Se  Se4       1.0  0.7614000000000003  0.6508000000000003  0.97135  1.0000
  O   O41       1.0  0.8007000000000003  0.7153000000000003  0.0124  1.0000
  O   O42       1.0  0.8524000000000003  0.7262000000000002  0.9344999999999999  1.0000
  O   O43       1.0  0.7432  0.5706000000000002  0.0017  1.0000
  O   O44       1.0  0.6578000000000004  0.6054000000000002  0.9344  1.0000
