# generated using pymatgen
data_Mn3CuH69C77N16O21
_symmetry_space_group_name_H-M   'P 1'
_cell_length_a   12.41610000
_cell_length_b   33.38800000
_cell_length_c   25.69250000
_cell_angle_alpha   90.00000000
_cell_angle_beta   95.47400000
_cell_angle_gamma   90.00000000
_symmetry_Int_Tables_number   1
_chemical_formula_structural   Mn3CuH69C77N16O21
_chemical_formula_sum   'Mn12 Cu4 H276 C308 N64 O84'
_cell_volume   10602.22168373
_cell_formula_units_Z   4
loop_
 _symmetry_equiv_pos_site_id
 _symmetry_equiv_pos_as_xyz
  1  'x, y, z'
loop_
 _atom_site_type_symbol
 _atom_site_label
 _atom_site_symmetry_multiplicity
 _atom_site_fract_x
 _atom_site_fract_y
 _atom_site_fract_z
 _atom_site_occupancy
  Mn  Mn1  1  0.23011000  0.93277000  0.30042000  1.0
  Mn  Mn2  1  0.83588000  0.07356000  0.20226000  1.0
  Mn  Mn3  1  0.02451000  0.00210000  0.25268000  1.0
  Mn  Mn4  1  0.76989000  0.43277000  0.19958000  1.0
  Mn  Mn5  1  0.16412000  0.57356000  0.29774000  1.0
  Mn  Mn6  1  0.97549000  0.50210000  0.24732000  1.0
  Mn  Mn7  1  0.76989000  0.06723000  0.69958000  1.0
  Mn  Mn8  1  0.16412000  0.92644000  0.79774000  1.0
  Mn  Mn9  1  0.97549000  0.99790000  0.74732000  1.0
  Mn  Mn10  1  0.23011000  0.56723000  0.80042000  1.0
  Mn  Mn11  1  0.83588000  0.42644000  0.70226000  1.0
  Mn  Mn12  1  0.02451000  0.49790000  0.75268000  1.0
  Cu  Cu1  1  0.70666000  0.25980000  0.37122000  1.0
  Cu  Cu2  1  0.29334000  0.75980000  0.12878000  1.0
  Cu  Cu3  1  0.29334000  0.74020000  0.62878000  1.0
  Cu  Cu4  1  0.70666000  0.24020000  0.87122000  1.0
  H  H1  1  0.69570000  0.94860000  0.33600000  1.0
  H  H2  1  0.55350000  0.08890000  0.38320000  1.0
  H  H3  1  0.20000000  0.04120000  0.18520000  1.0
  H  H4  1  0.38000000  0.05140000  0.17570000  1.0
  H  H5  1  0.71520000  0.83270000  0.29110000  1.0
  H  H6  1  0.28670000  0.15570000  0.34540000  1.0
  H  H7  1  0.67010000  0.10480000  0.94990000  1.0
  H  H8  1  0.89520000  0.84340000  0.27720000  1.0
  H  H9  1  0.87820000  0.95800000  0.32630000  1.0
  H  H10  1  0.18790000  0.09680000  0.32070000  1.0
  H  H11  1  0.15140000  0.40600000  0.31540000  1.0
  H  H12  1  0.88890000  0.01980000  0.10950000  1.0
  H  H13  1  0.88070000  0.01720000  0.04700000  1.0
  H  H14  1  0.98550000  0.03650000  0.07850000  1.0
  H  H15  1  0.25510000  0.35070000  0.34130000  1.0
  H  H16  1  0.34240000  0.82590000  0.38620000  1.0
  H  H17  1  0.25960000  0.84340000  0.34000000  1.0
  H  H18  1  0.51740000  0.79970000  0.36380000  1.0
  H  H19  1  0.63310000  0.82060000  0.37550000  1.0
  H  H20  1  0.54190000  0.82700000  0.41470000  1.0
  H  H21  1  0.72460000  0.18070000  0.12280000  1.0
  H  H22  1  0.80660000  0.16070000  0.16730000  1.0
  H  H23  1  0.61620000  0.25910000  0.47370000  1.0
  H  H24  1  0.48940000  0.25630000  0.48060000  1.0
  H  H25  1  0.39990000  0.47900000  0.36010000  1.0
  H  H26  1  0.49590000  0.97360000  0.28440000  1.0
  H  H27  1  0.56430000  0.94710000  0.24740000  1.0
  H  H28  1  0.43540000  0.94950000  0.23630000  1.0
  H  H29  1  0.07430000  0.96740000  0.38840000  1.0
  H  H30  1  0.08510000  0.97260000  0.45060000  1.0
  H  H31  1  0.17360000  0.99200000  0.41690000  1.0
  H  H32  1  0.64410000  0.05490000  0.26690000  1.0
  H  H33  1  0.51600000  0.06050000  0.26600000  1.0
  H  H34  1  0.56470000  0.03240000  0.22360000  1.0
  H  H35  1  0.34470000  0.17020000  0.19790000  1.0
  H  H36  1  0.16090000  0.16090000  0.20600000  1.0
  H  H37  1  0.53850000  0.17950000  0.08950000  1.0
  H  H38  1  0.42830000  0.17690000  0.11690000  1.0
  H  H39  1  0.52530000  0.20470000  0.14140000  1.0
  H  H40  1  0.13330000  0.87680000  0.63280000  1.0
  H  H41  1  0.71240000  0.17640000  0.32190000  1.0
  H  H42  1  0.64330000  0.13590000  0.32240000  1.0
  H  H43  1  0.60120000  0.17230000  0.28530000  1.0
  H  H44  1  0.74970000  0.19080000  0.03990000  1.0
  H  H45  1  0.75360000  0.16820000  0.98510000  1.0
  H  H46  1  0.64880000  0.16440000  0.01660000  1.0
  H  H47  1  0.17020000  0.86230000  0.54710000  1.0
  H  H48  1  0.45490000  0.03020000  0.35840000  1.0
  H  H49  1  0.17570000  0.99450000  0.60570000  1.0
  H  H50  1  0.22660000  0.98050000  0.52350000  1.0
  H  H51  1  0.57280000  0.37500000  0.30310000  1.0
  H  H52  1  0.67040000  0.34380000  0.31270000  1.0
  H  H53  1  0.56090000  0.33090000  0.27900000  1.0
  H  H54  1  0.97600000  0.06280000  0.97870000  1.0
  H  H55  1  0.50090000  0.42450000  0.39040000  1.0
  H  H56  1  0.40920000  0.84020000  0.47330000  1.0
  H  H57  1  0.35440000  0.85450000  0.52410000  1.0
  H  H58  1  0.29660000  0.82110000  0.48640000  1.0
  H  H59  1  0.67290000  0.08800000  0.86340000  1.0
  H  H60  1  0.34410000  0.16330000  0.45790000  1.0
  H  H61  1  0.39620000  0.20140000  0.48850000  1.0
  H  H62  1  0.30990000  0.20750000  0.43870000  1.0
  H  H63  1  0.96950000  0.04050000  0.89170000  1.0
  H  H64  1  0.39310000  0.31990000  0.49520000  1.0
  H  H65  1  0.31100000  0.34180000  0.45260000  1.0
  H  H66  1  0.31790000  0.29400000  0.45380000  1.0
  H  H67  1  0.03800000  0.33110000  0.34000000  1.0
  H  H68  1  0.95940000  0.36640000  0.31800000  1.0
  H  H69  1  0.99910000  0.36430000  0.37910000  1.0
  H  H70  1  0.30430000  0.44860000  0.16400000  1.0
  H  H71  1  0.44650000  0.58890000  0.11680000  1.0
  H  H72  1  0.80000000  0.54120000  0.31480000  1.0
  H  H73  1  0.62000000  0.55140000  0.32430000  1.0
  H  H74  1  0.28480000  0.33270000  0.20890000  1.0
  H  H75  1  0.71330000  0.65570000  0.15460000  1.0
  H  H76  1  0.32990000  0.60480000  0.55010000  1.0
  H  H77  1  0.10480000  0.34340000  0.22280000  1.0
  H  H78  1  0.12180000  0.45800000  0.17370000  1.0
  H  H79  1  0.81210000  0.59680000  0.17930000  1.0
  H  H80  1  0.84860000  0.90600000  0.18460000  1.0
  H  H81  1  0.11110000  0.51980000  0.39050000  1.0
  H  H82  1  0.11930000  0.51720000  0.45300000  1.0
  H  H83  1  0.01450000  0.53650000  0.42150000  1.0
  H  H84  1  0.74490000  0.85070000  0.15870000  1.0
  H  H85  1  0.65760000  0.32590000  0.11380000  1.0
  H  H86  1  0.74040000  0.34340000  0.16000000  1.0
  H  H87  1  0.48260000  0.29970000  0.13620000  1.0
  H  H88  1  0.36690000  0.32060000  0.12450000  1.0
  H  H89  1  0.45810000  0.32700000  0.08530000  1.0
  H  H90  1  0.27540000  0.68070000  0.37720000  1.0
  H  H91  1  0.19340000  0.66070000  0.33270000  1.0
  H  H92  1  0.38380000  0.75910000  0.02630000  1.0
  H  H93  1  0.51060000  0.75630000  0.01940000  1.0
  H  H94  1  0.60010000  0.97900000  0.13990000  1.0
  H  H95  1  0.50410000  0.47360000  0.21560000  1.0
  H  H96  1  0.43570000  0.44710000  0.25260000  1.0
  H  H97  1  0.56460000  0.44950000  0.26370000  1.0
  H  H98  1  0.92570000  0.46740000  0.11160000  1.0
  H  H99  1  0.91490000  0.47260000  0.04940000  1.0
  H  H100  1  0.82640000  0.49200000  0.08310000  1.0
  H  H101  1  0.35590000  0.55490000  0.23310000  1.0
  H  H102  1  0.48400000  0.56050000  0.23400000  1.0
  H  H103  1  0.43530000  0.53240000  0.27640000  1.0
  H  H104  1  0.65530000  0.67020000  0.30210000  1.0
  H  H105  1  0.83910000  0.66090000  0.29400000  1.0
  H  H106  1  0.46150000  0.67950000  0.41050000  1.0
  H  H107  1  0.57170000  0.67690000  0.38310000  1.0
  H  H108  1  0.47470000  0.70470000  0.35860000  1.0
  H  H109  1  0.86670000  0.37680000  0.86720000  1.0
  H  H110  1  0.28760000  0.67640000  0.17810000  1.0
  H  H111  1  0.35670000  0.63590000  0.17760000  1.0
  H  H112  1  0.39880000  0.67230000  0.21470000  1.0
  H  H113  1  0.25030000  0.69080000  0.46010000  1.0
  H  H114  1  0.24640000  0.66820000  0.51490000  1.0
  H  H115  1  0.35120000  0.66440000  0.48340000  1.0
  H  H116  1  0.82980000  0.36230000  0.95290000  1.0
  H  H117  1  0.54510000  0.53020000  0.14160000  1.0
  H  H118  1  0.82430000  0.49450000  0.89430000  1.0
  H  H119  1  0.77340000  0.48050000  0.97650000  1.0
  H  H120  1  0.42720000  0.87500000  0.19690000  1.0
  H  H121  1  0.32960000  0.84380000  0.18730000  1.0
  H  H122  1  0.43910000  0.83090000  0.22100000  1.0
  H  H123  1  0.02400000  0.56280000  0.52130000  1.0
  H  H124  1  0.49910000  0.92450000  0.10960000  1.0
  H  H125  1  0.59080000  0.34020000  0.02670000  1.0
  H  H126  1  0.64560000  0.35450000  0.97590000  1.0
  H  H127  1  0.70340000  0.32110000  0.01360000  1.0
  H  H128  1  0.32710000  0.58800000  0.63660000  1.0
  H  H129  1  0.65590000  0.66330000  0.04210000  1.0
  H  H130  1  0.60380000  0.70140000  0.01150000  1.0
  H  H131  1  0.69010000  0.70750000  0.06130000  1.0
  H  H132  1  0.03050000  0.54050000  0.60830000  1.0
  H  H133  1  0.60690000  0.81990000  0.00480000  1.0
  H  H134  1  0.68900000  0.84180000  0.04740000  1.0
  H  H135  1  0.68210000  0.79400000  0.04620000  1.0
  H  H136  1  0.96200000  0.83110000  0.16000000  1.0
  H  H137  1  0.04060000  0.86640000  0.18200000  1.0
  H  H138  1  0.00090000  0.86430000  0.12090000  1.0
  H  H139  1  0.30430000  0.05140000  0.66400000  1.0
  H  H140  1  0.44650000  0.91110000  0.61680000  1.0
  H  H141  1  0.80000000  0.95880000  0.81480000  1.0
  H  H142  1  0.62000000  0.94860000  0.82430000  1.0
  H  H143  1  0.28480000  0.16730000  0.70890000  1.0
  H  H144  1  0.71330000  0.84430000  0.65460000  1.0
  H  H145  1  0.32990000  0.89520000  0.05010000  1.0
  H  H146  1  0.10480000  0.15660000  0.72280000  1.0
  H  H147  1  0.12180000  0.04200000  0.67370000  1.0
  H  H148  1  0.81210000  0.90320000  0.67930000  1.0
  H  H149  1  0.84860000  0.59400000  0.68460000  1.0
  H  H150  1  0.11110000  0.98020000  0.89050000  1.0
  H  H151  1  0.11930000  0.98280000  0.95300000  1.0
  H  H152  1  0.01450000  0.96350000  0.92150000  1.0
  H  H153  1  0.74490000  0.64930000  0.65870000  1.0
  H  H154  1  0.65760000  0.17410000  0.61380000  1.0
  H  H155  1  0.74040000  0.15660000  0.66000000  1.0
  H  H156  1  0.48260000  0.20030000  0.63620000  1.0
  H  H157  1  0.36690000  0.17940000  0.62450000  1.0
  H  H158  1  0.45810000  0.17300000  0.58530000  1.0
  H  H159  1  0.27540000  0.81930000  0.87720000  1.0
  H  H160  1  0.19340000  0.83930000  0.83270000  1.0
  H  H161  1  0.38380000  0.74090000  0.52630000  1.0
  H  H162  1  0.51060000  0.74370000  0.51940000  1.0
  H  H163  1  0.60010000  0.52100000  0.63990000  1.0
  H  H164  1  0.50410000  0.02640000  0.71560000  1.0
  H  H165  1  0.43570000  0.05290000  0.75260000  1.0
  H  H166  1  0.56460000  0.05050000  0.76370000  1.0
  H  H167  1  0.92570000  0.03260000  0.61160000  1.0
  H  H168  1  0.91490000  0.02740000  0.54940000  1.0
  H  H169  1  0.82640000  0.00800000  0.58310000  1.0
  H  H170  1  0.35590000  0.94510000  0.73310000  1.0
  H  H171  1  0.48400000  0.93950000  0.73400000  1.0
  H  H172  1  0.43530000  0.96760000  0.77640000  1.0
  H  H173  1  0.65530000  0.82980000  0.80210000  1.0
  H  H174  1  0.83910000  0.83910000  0.79400000  1.0
  H  H175  1  0.46150000  0.82050000  0.91050000  1.0
  H  H176  1  0.57170000  0.82310000  0.88310000  1.0
  H  H177  1  0.47470000  0.79530000  0.85860000  1.0
  H  H178  1  0.86670000  0.12320000  0.36720000  1.0
  H  H179  1  0.28760000  0.82360000  0.67810000  1.0
  H  H180  1  0.35670000  0.86410000  0.67760000  1.0
  H  H181  1  0.39880000  0.82770000  0.71470000  1.0
  H  H182  1  0.25030000  0.80920000  0.96010000  1.0
  H  H183  1  0.24640000  0.83180000  0.01490000  1.0
  H  H184  1  0.35120000  0.83560000  0.98340000  1.0
  H  H185  1  0.82980000  0.13770000  0.45290000  1.0
  H  H186  1  0.54510000  0.96980000  0.64160000  1.0
  H  H187  1  0.82430000  0.00550000  0.39430000  1.0
  H  H188  1  0.77340000  0.01950000  0.47650000  1.0
  H  H189  1  0.42720000  0.62500000  0.69690000  1.0
  H  H190  1  0.32960000  0.65620000  0.68730000  1.0
  H  H191  1  0.43910000  0.66910000  0.72100000  1.0
  H  H192  1  0.02400000  0.93720000  0.02130000  1.0
  H  H193  1  0.49910000  0.57550000  0.60960000  1.0
  H  H194  1  0.59080000  0.15980000  0.52670000  1.0
  H  H195  1  0.64560000  0.14550000  0.47590000  1.0
  H  H196  1  0.70340000  0.17890000  0.51360000  1.0
  H  H197  1  0.32710000  0.91200000  0.13660000  1.0
  H  H198  1  0.65590000  0.83670000  0.54210000  1.0
  H  H199  1  0.60380000  0.79860000  0.51150000  1.0
  H  H200  1  0.69010000  0.79250000  0.56130000  1.0
  H  H201  1  0.03050000  0.95950000  0.10830000  1.0
  H  H202  1  0.60690000  0.68010000  0.50480000  1.0
  H  H203  1  0.68900000  0.65820000  0.54740000  1.0
  H  H204  1  0.68210000  0.70600000  0.54620000  1.0
  H  H205  1  0.96200000  0.66890000  0.66000000  1.0
  H  H206  1  0.04060000  0.63360000  0.68200000  1.0
  H  H207  1  0.00090000  0.63570000  0.62090000  1.0
  H  H208  1  0.69570000  0.55140000  0.83600000  1.0
  H  H209  1  0.55350000  0.41110000  0.88320000  1.0
  H  H210  1  0.20000000  0.45880000  0.68520000  1.0
  H  H211  1  0.38000000  0.44860000  0.67570000  1.0
  H  H212  1  0.71520000  0.66730000  0.79110000  1.0
  H  H213  1  0.28670000  0.34430000  0.84540000  1.0
  H  H214  1  0.67010000  0.39520000  0.44990000  1.0
  H  H215  1  0.89520000  0.65660000  0.77720000  1.0
  H  H216  1  0.87820000  0.54200000  0.82630000  1.0
  H  H217  1  0.18790000  0.40320000  0.82070000  1.0
  H  H218  1  0.15140000  0.09400000  0.81540000  1.0
  H  H219  1  0.88890000  0.48020000  0.60950000  1.0
  H  H220  1  0.88070000  0.48280000  0.54700000  1.0
  H  H221  1  0.98550000  0.46350000  0.57850000  1.0
  H  H222  1  0.25510000  0.14930000  0.84130000  1.0
  H  H223  1  0.34240000  0.67410000  0.88620000  1.0
  H  H224  1  0.25960000  0.65660000  0.84000000  1.0
  H  H225  1  0.51740000  0.70030000  0.86380000  1.0
  H  H226  1  0.63310000  0.67940000  0.87550000  1.0
  H  H227  1  0.54190000  0.67300000  0.91470000  1.0
  H  H228  1  0.72460000  0.31930000  0.62280000  1.0
  H  H229  1  0.80660000  0.33930000  0.66730000  1.0
  H  H230  1  0.61620000  0.24090000  0.97370000  1.0
  H  H231  1  0.48940000  0.24370000  0.98060000  1.0
  H  H232  1  0.39990000  0.02100000  0.86010000  1.0
  H  H233  1  0.49590000  0.52640000  0.78440000  1.0
  H  H234  1  0.56430000  0.55290000  0.74740000  1.0
  H  H235  1  0.43540000  0.55050000  0.73630000  1.0
  H  H236  1  0.07430000  0.53260000  0.88840000  1.0
  H  H237  1  0.08510000  0.52740000  0.95060000  1.0
  H  H238  1  0.17360000  0.50800000  0.91690000  1.0
  H  H239  1  0.64410000  0.44510000  0.76690000  1.0
  H  H240  1  0.51600000  0.43950000  0.76600000  1.0
  H  H241  1  0.56470000  0.46760000  0.72360000  1.0
  H  H242  1  0.34470000  0.32980000  0.69790000  1.0
  H  H243  1  0.16090000  0.33910000  0.70600000  1.0
  H  H244  1  0.53850000  0.32050000  0.58950000  1.0
  H  H245  1  0.42830000  0.32310000  0.61690000  1.0
  H  H246  1  0.52530000  0.29530000  0.64140000  1.0
  H  H247  1  0.13330000  0.62320000  0.13280000  1.0
  H  H248  1  0.71240000  0.32360000  0.82190000  1.0
  H  H249  1  0.64330000  0.36410000  0.82240000  1.0
  H  H250  1  0.60120000  0.32770000  0.78530000  1.0
  H  H251  1  0.74970000  0.30920000  0.53990000  1.0
  H  H252  1  0.75360000  0.33180000  0.48510000  1.0
  H  H253  1  0.64880000  0.33560000  0.51660000  1.0
  H  H254  1  0.17020000  0.63770000  0.04710000  1.0
  H  H255  1  0.45490000  0.46980000  0.85840000  1.0
  H  H256  1  0.17570000  0.50550000  0.10570000  1.0
  H  H257  1  0.22660000  0.51950000  0.02350000  1.0
  H  H258  1  0.57280000  0.12500000  0.80310000  1.0
  H  H259  1  0.67040000  0.15620000  0.81270000  1.0
  H  H260  1  0.56090000  0.16910000  0.77900000  1.0
  H  H261  1  0.97600000  0.43720000  0.47870000  1.0
  H  H262  1  0.50090000  0.07550000  0.89040000  1.0
  H  H263  1  0.40920000  0.65980000  0.97330000  1.0
  H  H264  1  0.35440000  0.64550000  0.02410000  1.0
  H  H265  1  0.29660000  0.67890000  0.98640000  1.0
  H  H266  1  0.67290000  0.41200000  0.36340000  1.0
  H  H267  1  0.34410000  0.33670000  0.95790000  1.0
  H  H268  1  0.39620000  0.29860000  0.98850000  1.0
  H  H269  1  0.30990000  0.29250000  0.93870000  1.0
  H  H270  1  0.96950000  0.45950000  0.39170000  1.0
  H  H271  1  0.39310000  0.18010000  0.99520000  1.0
  H  H272  1  0.31100000  0.15820000  0.95260000  1.0
  H  H273  1  0.31790000  0.20600000  0.95380000  1.0
  H  H274  1  0.03800000  0.16890000  0.84000000  1.0
  H  H275  1  0.95940000  0.13360000  0.81800000  1.0
  H  H276  1  0.99910000  0.13570000  0.87910000  1.0
  C  C1  1  0.90330000  0.90080000  0.30120000  1.0
  C  C2  1  0.24860000  0.02200000  0.31830000  1.0
  C  C3  1  0.57990000  0.18150000  0.36140000  1.0
  C  C4  1  0.77550000  0.13090000  0.04770000  1.0
  C  C5  1  0.38070000  0.11160000  0.18820000  1.0
  C  C6  1  0.15900000  0.10020000  0.19710000  1.0
  C  C7  1  0.31290000  0.05870000  0.33630000  1.0
  C  C8  1  0.82080000  0.05070000  0.81320000  1.0
  C  C9  1  0.19590000  0.48320000  0.31320000  1.0
  C  C10  1  0.81850000  0.09720000  0.02940000  1.0
  C  C11  1  0.12600000  0.94540000  0.68200000  1.0
  C  C12  1  0.56800000  0.88700000  0.32060000  1.0
  C  C13  1  0.73640000  0.92670000  0.32460000  1.0
  C  C14  1  0.28080000  0.87750000  0.45630000  1.0
  C  C15  1  0.55160000  0.14520000  0.15550000  1.0
  C  C16  1  0.68350000  0.89020000  0.31470000  1.0
  C  C17  1  0.51570000  0.85860000  0.34820000  1.0
  C  C18  1  0.02040000  0.90740000  0.29380000  1.0
  C  C19  1  0.42940000  0.12780000  0.36690000  1.0
  C  C20  1  0.49900000  0.11660000  0.18440000  1.0
  C  C21  1  0.82150000  0.06230000  0.86940000  1.0
  C  C22  1  0.47930000  0.09080000  0.37050000  1.0
  C  C23  1  0.19880000  0.92010000  0.52570000  1.0
  C  C24  1  0.22870000  0.06760000  0.18790000  1.0
  C  C25  1  0.48520000  0.91290000  0.29890000  1.0
  C  C26  1  0.85430000  0.07350000  0.07380000  1.0
  C  C27  1  0.82250000  0.08540000  0.97480000  1.0
  C  C28  1  0.33570000  0.07350000  0.18290000  1.0
  C  C29  1  0.22270000  0.90960000  0.47200000  1.0
  C  C30  1  0.74680000  0.85840000  0.29750000  1.0
  C  C31  1  0.45810000  0.19100000  0.41960000  1.0
  C  C32  1  0.32140000  0.13040000  0.34820000  1.0
  C  C33  1  0.19020000  0.93170000  0.42560000  1.0
  C  C34  1  0.73270000  0.09250000  0.93850000  1.0
  C  C35  1  0.85440000  0.86470000  0.29020000  1.0
  C  C36  1  0.26350000  0.44840000  0.33310000  1.0
  C  C37  1  0.84480000  0.93280000  0.31860000  1.0
  C  C38  1  0.26230000  0.09500000  0.33300000  1.0
  C  C39  1  0.54690000  0.33250000  0.35720000  1.0
  C  C40  1  0.04310000  0.09390000  0.20410000  1.0
  C  C41  1  0.22430000  0.40990000  0.32930000  1.0
  C  C42  1  0.90690000  0.03330000  0.07750000  1.0
  C  C43  1  0.28540000  0.37680000  0.34480000  1.0
  C  C44  1  0.31810000  0.85060000  0.36730000  1.0
  C  C45  1  0.55530000  0.82360000  0.37800000  1.0
  C  C46  1  0.74700000  0.15500000  0.13990000  1.0
  C  C47  1  0.54320000  0.25760000  0.45460000  1.0
  C  C48  1  0.36960000  0.45290000  0.35610000  1.0
  C  C49  1  0.48730000  0.16520000  0.38290000  1.0
  C  C50  1  0.45980000  0.34660000  0.38130000  1.0
  C  C51  1  0.49620000  0.94900000  0.26360000  1.0
  C  C52  1  0.12520000  0.96910000  0.41990000  1.0
  C  C53  1  0.57610000  0.05690000  0.24430000  1.0
  C  C54  1  0.31500000  0.14400000  0.19580000  1.0
  C  C55  1  0.39440000  0.38220000  0.36600000  1.0
  C  C56  1  0.15090000  0.93710000  0.62790000  1.0
  C  C57  1  0.20520000  0.13830000  0.20040000  1.0
  C  C58  1  0.50710000  0.17950000  0.12300000  1.0
  C  C59  1  0.14970000  0.89800000  0.61010000  1.0
  C  C60  1  0.63920000  0.16520000  0.31920000  1.0
  C  C61  1  0.72790000  0.16660000  0.02000000  1.0
  C  C62  1  0.17260000  0.88920000  0.55910000  1.0
  C  C63  1  0.42070000  0.05560000  0.35540000  1.0
  C  C64  1  0.17690000  0.96740000  0.59420000  1.0
  C  C65  1  0.20410000  0.95940000  0.54480000  1.0
  C  C66  1  0.59160000  0.34680000  0.30890000  1.0
  C  C67  1  0.91230000  0.06690000  0.95580000  1.0
  C  C68  1  0.43080000  0.42020000  0.37310000  1.0
  C  C69  1  0.34030000  0.84560000  0.48770000  1.0
  C  C70  1  0.58130000  0.09250000  0.20820000  1.0
  C  C71  1  0.73380000  0.08180000  0.88730000  1.0
  C  C72  1  0.36970000  0.19080000  0.45410000  1.0
  C  C73  1  0.44580000  0.32010000  0.42200000  1.0
  C  C74  1  0.90960000  0.05440000  0.90340000  1.0
  C  C75  1  0.35940000  0.31880000  0.45910000  1.0
  C  C76  1  0.88320000  0.32360000  0.35650000  1.0
  C  C77  1  0.97790000  0.34840000  0.34770000  1.0
  C  C78  1  0.09670000  0.40080000  0.19880000  1.0
  C  C79  1  0.75140000  0.52200000  0.18170000  1.0
  C  C80  1  0.42010000  0.68150000  0.13860000  1.0
  C  C81  1  0.22450000  0.63090000  0.45230000  1.0
  C  C82  1  0.61930000  0.61160000  0.31180000  1.0
  C  C83  1  0.84100000  0.60020000  0.30290000  1.0
  C  C84  1  0.68710000  0.55870000  0.16370000  1.0
  C  C85  1  0.17920000  0.55070000  0.68680000  1.0
  C  C86  1  0.80410000  0.98320000  0.18680000  1.0
  C  C87  1  0.18150000  0.59720000  0.47060000  1.0
  C  C88  1  0.87400000  0.44540000  0.81800000  1.0
  C  C89  1  0.43200000  0.38700000  0.17940000  1.0
  C  C90  1  0.26360000  0.42670000  0.17540000  1.0
  C  C91  1  0.71920000  0.37750000  0.04370000  1.0
  C  C92  1  0.44840000  0.64520000  0.34450000  1.0
  C  C93  1  0.31650000  0.39020000  0.18530000  1.0
  C  C94  1  0.48430000  0.35860000  0.15180000  1.0
  C  C95  1  0.97960000  0.40740000  0.20620000  1.0
  C  C96  1  0.57060000  0.62780000  0.13310000  1.0
  C  C97  1  0.50100000  0.61660000  0.31560000  1.0
  C  C98  1  0.17850000  0.56230000  0.63060000  1.0
  C  C99  1  0.52070000  0.59080000  0.12950000  1.0
  C  C100  1  0.80120000  0.42010000  0.97430000  1.0
  C  C101  1  0.77130000  0.56760000  0.31210000  1.0
  C  C102  1  0.51480000  0.41290000  0.20110000  1.0
  C  C103  1  0.14570000  0.57350000  0.42620000  1.0
  C  C104  1  0.17750000  0.58540000  0.52520000  1.0
  C  C105  1  0.66430000  0.57350000  0.31710000  1.0
  C  C106  1  0.77730000  0.40960000  0.02800000  1.0
  C  C107  1  0.25320000  0.35840000  0.20250000  1.0
  C  C108  1  0.54190000  0.69100000  0.08040000  1.0
  C  C109  1  0.67860000  0.63040000  0.15180000  1.0
  C  C110  1  0.80980000  0.43170000  0.07440000  1.0
  C  C111  1  0.26730000  0.59250000  0.56150000  1.0
  C  C112  1  0.14560000  0.36470000  0.20980000  1.0
  C  C113  1  0.73650000  0.94840000  0.16690000  1.0
  C  C114  1  0.15520000  0.43280000  0.18140000  1.0
  C  C115  1  0.73770000  0.59500000  0.16700000  1.0
  C  C116  1  0.45310000  0.83250000  0.14280000  1.0
  C  C117  1  0.95690000  0.59390000  0.29590000  1.0
  C  C118  1  0.77570000  0.90990000  0.17070000  1.0
  C  C119  1  0.09310000  0.53330000  0.42250000  1.0
  C  C120  1  0.71460000  0.87680000  0.15520000  1.0
  C  C121  1  0.68190000  0.35060000  0.13270000  1.0
  C  C122  1  0.44470000  0.32360000  0.12200000  1.0
  C  C123  1  0.25300000  0.65500000  0.36010000  1.0
  C  C124  1  0.45680000  0.75760000  0.04540000  1.0
  C  C125  1  0.63040000  0.95290000  0.14390000  1.0
  C  C126  1  0.51270000  0.66520000  0.11710000  1.0
  C  C127  1  0.54020000  0.84660000  0.11870000  1.0
  C  C128  1  0.50380000  0.44900000  0.23640000  1.0
  C  C129  1  0.87480000  0.46910000  0.08010000  1.0
  C  C130  1  0.42390000  0.55690000  0.25570000  1.0
  C  C131  1  0.68500000  0.64400000  0.30420000  1.0
  C  C132  1  0.60560000  0.88220000  0.13400000  1.0
  C  C133  1  0.84910000  0.43710000  0.87210000  1.0
  C  C134  1  0.79480000  0.63830000  0.29960000  1.0
  C  C135  1  0.49290000  0.67950000  0.37700000  1.0
  C  C136  1  0.85030000  0.39800000  0.88990000  1.0
  C  C137  1  0.36080000  0.66520000  0.18080000  1.0
  C  C138  1  0.27210000  0.66666667  0.48000000  1.0
  C  C139  1  0.82740000  0.38920000  0.94090000  1.0
  C  C140  1  0.57930000  0.55560000  0.14460000  1.0
  C  C141  1  0.82310000  0.46740000  0.90580000  1.0
  C  C142  1  0.79590000  0.45940000  0.95520000  1.0
  C  C143  1  0.40840000  0.84680000  0.19110000  1.0
  C  C144  1  0.08770000  0.56690000  0.54420000  1.0
  C  C145  1  0.56920000  0.92020000  0.12690000  1.0
  C  C146  1  0.65970000  0.34560000  0.01230000  1.0
  C  C147  1  0.41870000  0.59250000  0.29180000  1.0
  C  C148  1  0.26620000  0.58180000  0.61270000  1.0
  C  C149  1  0.63030000  0.69080000  0.04590000  1.0
  C  C150  1  0.55420000  0.82010000  0.07800000  1.0
  C  C151  1  0.09040000  0.55440000  0.59660000  1.0
  C  C152  1  0.64060000  0.81880000  0.04090000  1.0
  C  C153  1  0.11680000  0.82360000  0.14350000  1.0
  C  C154  1  0.02210000  0.84840000  0.15230000  1.0
  C  C155  1  0.09670000  0.09920000  0.69880000  1.0
  C  C156  1  0.75140000  0.97800000  0.68170000  1.0
  C  C157  1  0.42010000  0.81850000  0.63860000  1.0
  C  C158  1  0.22450000  0.86910000  0.95230000  1.0
  C  C159  1  0.61930000  0.88840000  0.81180000  1.0
  C  C160  1  0.84100000  0.89980000  0.80290000  1.0
  C  C161  1  0.68710000  0.94130000  0.66370000  1.0
  C  C162  1  0.17920000  0.94930000  0.18680000  1.0
  C  C163  1  0.80410000  0.51680000  0.68680000  1.0
  C  C164  1  0.18150000  0.90280000  0.97060000  1.0
  C  C165  1  0.87400000  0.05460000  0.31800000  1.0
  C  C166  1  0.43200000  0.11300000  0.67940000  1.0
  C  C167  1  0.26360000  0.07330000  0.67540000  1.0
  C  C168  1  0.71920000  0.12250000  0.54370000  1.0
  C  C169  1  0.44840000  0.85480000  0.84450000  1.0
  C  C170  1  0.31650000  0.10980000  0.68530000  1.0
  C  C171  1  0.48430000  0.14140000  0.65180000  1.0
  C  C172  1  0.97960000  0.09260000  0.70620000  1.0
  C  C173  1  0.57060000  0.87220000  0.63310000  1.0
  C  C174  1  0.50100000  0.88340000  0.81560000  1.0
  C  C175  1  0.17850000  0.93770000  0.13060000  1.0
  C  C176  1  0.52070000  0.90920000  0.62950000  1.0
  C  C177  1  0.80120000  0.07990000  0.47430000  1.0
  C  C178  1  0.77130000  0.93240000  0.81210000  1.0
  C  C179  1  0.51480000  0.08710000  0.70110000  1.0
  C  C180  1  0.14570000  0.92650000  0.92620000  1.0
  C  C181  1  0.17750000  0.91460000  0.02520000  1.0
  C  C182  1  0.66430000  0.92650000  0.81710000  1.0
  C  C183  1  0.77730000  0.09040000  0.52800000  1.0
  C  C184  1  0.25320000  0.14160000  0.70250000  1.0
  C  C185  1  0.54190000  0.80900000  0.58040000  1.0
  C  C186  1  0.67860000  0.86960000  0.65180000  1.0
  C  C187  1  0.80980000  0.06830000  0.57440000  1.0
  C  C188  1  0.26730000  0.90750000  0.06150000  1.0
  C  C189  1  0.14560000  0.13530000  0.70980000  1.0
  C  C190  1  0.73650000  0.55160000  0.66690000  1.0
  C  C191  1  0.15520000  0.06720000  0.68140000  1.0
  C  C192  1  0.73770000  0.90500000  0.66700000  1.0
  C  C193  1  0.45310000  0.66750000  0.64280000  1.0
  C  C194  1  0.95690000  0.90610000  0.79590000  1.0
  C  C195  1  0.77570000  0.59010000  0.67070000  1.0
  C  C196  1  0.09310000  0.96670000  0.92250000  1.0
  C  C197  1  0.71460000  0.62320000  0.65520000  1.0
  C  C198  1  0.68190000  0.14940000  0.63270000  1.0
  C  C199  1  0.44470000  0.17640000  0.62200000  1.0
  C  C200  1  0.25300000  0.84500000  0.86010000  1.0
  C  C201  1  0.45680000  0.74240000  0.54540000  1.0
  C  C202  1  0.63040000  0.54710000  0.64390000  1.0
  C  C203  1  0.51270000  0.83480000  0.61710000  1.0
  C  C204  1  0.54020000  0.65340000  0.61870000  1.0
  C  C205  1  0.50380000  0.05100000  0.73640000  1.0
  C  C206  1  0.87480000  0.03090000  0.58010000  1.0
  C  C207  1  0.42390000  0.94310000  0.75570000  1.0
  C  C208  1  0.68500000  0.85600000  0.80420000  1.0
  C  C209  1  0.60560000  0.61780000  0.63400000  1.0
  C  C210  1  0.84910000  0.06290000  0.37210000  1.0
  C  C211  1  0.79480000  0.86170000  0.79960000  1.0
  C  C212  1  0.49290000  0.82050000  0.87700000  1.0
  C  C213  1  0.85030000  0.10200000  0.38990000  1.0
  C  C214  1  0.36080000  0.83480000  0.68080000  1.0
  C  C215  1  0.27210000  0.83340000  0.98000000  1.0
  C  C216  1  0.82740000  0.11080000  0.44090000  1.0
  C  C217  1  0.57930000  0.94440000  0.64460000  1.0
  C  C218  1  0.82310000  0.03260000  0.40580000  1.0
  C  C219  1  0.79590000  0.04060000  0.45520000  1.0
  C  C220  1  0.40840000  0.65320000  0.69110000  1.0
  C  C221  1  0.08770000  0.93310000  0.04420000  1.0
  C  C222  1  0.56920000  0.57980000  0.62690000  1.0
  C  C223  1  0.65970000  0.15440000  0.51230000  1.0
  C  C224  1  0.41870000  0.90750000  0.79180000  1.0
  C  C225  1  0.26620000  0.91820000  0.11270000  1.0
  C  C226  1  0.63030000  0.80920000  0.54590000  1.0
  C  C227  1  0.55420000  0.67990000  0.57800000  1.0
  C  C228  1  0.09040000  0.94560000  0.09660000  1.0
  C  C229  1  0.64060000  0.68120000  0.54090000  1.0
  C  C230  1  0.11680000  0.67640000  0.64350000  1.0
  C  C231  1  0.02210000  0.65160000  0.65230000  1.0
  C  C232  1  0.90330000  0.59920000  0.80120000  1.0
  C  C233  1  0.24860000  0.47800000  0.81830000  1.0
  C  C234  1  0.57990000  0.31850000  0.86140000  1.0
  C  C235  1  0.77550000  0.36910000  0.54770000  1.0
  C  C236  1  0.38070000  0.38840000  0.68820000  1.0
  C  C237  1  0.15900000  0.39980000  0.69710000  1.0
  C  C238  1  0.31290000  0.44130000  0.83630000  1.0
  C  C239  1  0.82080000  0.44930000  0.31320000  1.0
  C  C240  1  0.19590000  0.01680000  0.81320000  1.0
  C  C241  1  0.81850000  0.40280000  0.52940000  1.0
  C  C242  1  0.12600000  0.55460000  0.18200000  1.0
  C  C243  1  0.56800000  0.61300000  0.82060000  1.0
  C  C244  1  0.73640000  0.57330000  0.82460000  1.0
  C  C245  1  0.28080000  0.62250000  0.95630000  1.0
  C  C246  1  0.55160000  0.35480000  0.65550000  1.0
  C  C247  1  0.68350000  0.60980000  0.81470000  1.0
  C  C248  1  0.51570000  0.64140000  0.84820000  1.0
  C  C249  1  0.02040000  0.59260000  0.79380000  1.0
  C  C250  1  0.42940000  0.37220000  0.86690000  1.0
  C  C251  1  0.49900000  0.38340000  0.68440000  1.0
  C  C252  1  0.82150000  0.43770000  0.36940000  1.0
  C  C253  1  0.47930000  0.40920000  0.87050000  1.0
  C  C254  1  0.19880000  0.57990000  0.02570000  1.0
  C  C255  1  0.22870000  0.43240000  0.68790000  1.0
  C  C256  1  0.48520000  0.58710000  0.79890000  1.0
  C  C257  1  0.85430000  0.42650000  0.57380000  1.0
  C  C258  1  0.82250000  0.41460000  0.47480000  1.0
  C  C259  1  0.33570000  0.42650000  0.68290000  1.0
  C  C260  1  0.22270000  0.59040000  0.97200000  1.0
  C  C261  1  0.74680000  0.64160000  0.79750000  1.0
  C  C262  1  0.45810000  0.30900000  0.91960000  1.0
  C  C263  1  0.32140000  0.36960000  0.84820000  1.0
  C  C264  1  0.19020000  0.56830000  0.92560000  1.0
  C  C265  1  0.73270000  0.40750000  0.43850000  1.0
  C  C266  1  0.85440000  0.63530000  0.79020000  1.0
  C  C267  1  0.26350000  0.05160000  0.83310000  1.0
  C  C268  1  0.84480000  0.56720000  0.81860000  1.0
  C  C269  1  0.26230000  0.40500000  0.83300000  1.0
  C  C270  1  0.54690000  0.16750000  0.85720000  1.0
  C  C271  1  0.04310000  0.40610000  0.70410000  1.0
  C  C272  1  0.22430000  0.09010000  0.82930000  1.0
  C  C273  1  0.90690000  0.46670000  0.57750000  1.0
  C  C274  1  0.28540000  0.12320000  0.84480000  1.0
  C  C275  1  0.31810000  0.64940000  0.86730000  1.0
  C  C276  1  0.55530000  0.67640000  0.87800000  1.0
  C  C277  1  0.74700000  0.34500000  0.63990000  1.0
  C  C278  1  0.54320000  0.24240000  0.95460000  1.0
  C  C279  1  0.36960000  0.04710000  0.85610000  1.0
  C  C280  1  0.48730000  0.33480000  0.88290000  1.0
  C  C281  1  0.45980000  0.15340000  0.88130000  1.0
  C  C282  1  0.49620000  0.55100000  0.76360000  1.0
  C  C283  1  0.12520000  0.53090000  0.91990000  1.0
  C  C284  1  0.57610000  0.44310000  0.74430000  1.0
  C  C285  1  0.31500000  0.35600000  0.69580000  1.0
  C  C286  1  0.39440000  0.11780000  0.86600000  1.0
  C  C287  1  0.15090000  0.56290000  0.12790000  1.0
  C  C288  1  0.20520000  0.36170000  0.70040000  1.0
  C  C289  1  0.50710000  0.32050000  0.62300000  1.0
  C  C290  1  0.14970000  0.60200000  0.11010000  1.0
  C  C291  1  0.63920000  0.33480000  0.81920000  1.0
  C  C292  1  0.72790000  0.33340000  0.52000000  1.0
  C  C293  1  0.17260000  0.61080000  0.05910000  1.0
  C  C294  1  0.42070000  0.44440000  0.85540000  1.0
  C  C295  1  0.17690000  0.53260000  0.09420000  1.0
  C  C296  1  0.20410000  0.54060000  0.04480000  1.0
  C  C297  1  0.59160000  0.15320000  0.80890000  1.0
  C  C298  1  0.91230000  0.43310000  0.45580000  1.0
  C  C299  1  0.43080000  0.07980000  0.87310000  1.0
  C  C300  1  0.34030000  0.65440000  0.98770000  1.0
  C  C301  1  0.58130000  0.40750000  0.70820000  1.0
  C  C302  1  0.73380000  0.41820000  0.38730000  1.0
  C  C303  1  0.36970000  0.30920000  0.95410000  1.0
  C  C304  1  0.44580000  0.17990000  0.92200000  1.0
  C  C305  1  0.90960000  0.44560000  0.40340000  1.0
  C  C306  1  0.35940000  0.18120000  0.95910000  1.0
  C  C307  1  0.88320000  0.17640000  0.85650000  1.0
  C  C308  1  0.97790000  0.15160000  0.84770000  1.0
  N  N1  1  0.40900000  0.86826000  0.34260000  1.0
  N  N2  1  0.39060000  0.90125000  0.31200000  1.0
  N  N3  1  0.27730000  0.87922000  0.40370000  1.0
  N  N4  1  0.67800000  0.10497000  0.19630000  1.0
  N  N5  1  0.58960000  0.29926000  0.38200000  1.0
  N  N6  1  0.53490000  0.22159000  0.42180000  1.0
  N  N7  1  0.22110000  0.91214000  0.38390000  1.0
  N  N8  1  0.60670000  0.21574000  0.38720000  1.0
  N  N9  1  0.52380000  0.29283000  0.42190000  1.0
  N  N10  1  0.65570000  0.13778000  0.16390000  1.0
  N  N11  1  0.78510000  0.12781000  0.10120000  1.0
  N  N12  1  0.83220000  0.09315000  0.11739000  1.0
  N  N13  1  0.71380000  0.26380000  0.24840000  1.0
  N  N14  1  0.81580000  0.30260000  0.36250000  1.0
  N  N15  1  0.86290000  0.22490000  0.43540000  1.0
  N  N16  1  0.59100000  0.36826000  0.15740000  1.0
  N  N17  1  0.60940000  0.40125000  0.18800000  1.0
  N  N18  1  0.72270000  0.37922000  0.09630000  1.0
  N  N19  1  0.32200000  0.60497000  0.30370000  1.0
  N  N20  1  0.41040000  0.79926000  0.11800000  1.0
  N  N21  1  0.46510000  0.72159000  0.07820000  1.0
  N  N22  1  0.77890000  0.41214000  0.11610000  1.0
  N  N23  1  0.39330000  0.71574000  0.11280000  1.0
  N  N24  1  0.47620000  0.79283000  0.07810000  1.0
  N  N25  1  0.34430000  0.63778000  0.33610000  1.0
  N  N26  1  0.21490000  0.62781000  0.39880000  1.0
  N  N27  1  0.16780000  0.59315000  0.38261000  1.0
  N  N28  1  0.28620000  0.76380000  0.25160000  1.0
  N  N29  1  0.18420000  0.80260000  0.13750000  1.0
  N  N30  1  0.13710000  0.72490000  0.06460000  1.0
  N  N31  1  0.59100000  0.13174000  0.65740000  1.0
  N  N32  1  0.60940000  0.09875000  0.68800000  1.0
  N  N33  1  0.72270000  0.12078000  0.59630000  1.0
  N  N34  1  0.32200000  0.89503000  0.80370000  1.0
  N  N35  1  0.41040000  0.70074000  0.61800000  1.0
  N  N36  1  0.46510000  0.77841000  0.57820000  1.0
  N  N37  1  0.77890000  0.08786000  0.61610000  1.0
  N  N38  1  0.39330000  0.78426000  0.61280000  1.0
  N  N39  1  0.47620000  0.70717000  0.57810000  1.0
  N  N40  1  0.34430000  0.86222000  0.83610000  1.0
  N  N41  1  0.21490000  0.87219000  0.89880000  1.0
  N  N42  1  0.16780000  0.90685000  0.88261000  1.0
  N  N43  1  0.28620000  0.73620000  0.75160000  1.0
  N  N44  1  0.18420000  0.69740000  0.63750000  1.0
  N  N45  1  0.13710000  0.77510000  0.56460000  1.0
  N  N46  1  0.40900000  0.63174000  0.84260000  1.0
  N  N47  1  0.39060000  0.59875000  0.81200000  1.0
  N  N48  1  0.27730000  0.62078000  0.90370000  1.0
  N  N49  1  0.67800000  0.39503000  0.69630000  1.0
  N  N50  1  0.58960000  0.20074000  0.88200000  1.0
  N  N51  1  0.53490000  0.27841000  0.92180000  1.0
  N  N52  1  0.22110000  0.58786000  0.88390000  1.0
  N  N53  1  0.60670000  0.28426000  0.88720000  1.0
  N  N54  1  0.52380000  0.20717000  0.92190000  1.0
  N  N55  1  0.65570000  0.36222000  0.66390000  1.0
  N  N56  1  0.78510000  0.37219000  0.60120000  1.0
  N  N57  1  0.83220000  0.40685000  0.61739000  1.0
  N  N58  1  0.71380000  0.23620000  0.74840000  1.0
  N  N59  1  0.81580000  0.19740000  0.86250000  1.0
  N  N60  1  0.86290000  0.27510000  0.93540000  1.0
  N  N61  1  0.69970000  0.75160000  0.93110000  1.0
  N  N62  1  0.30030000  0.25160000  0.56890000  1.0
  N  N63  1  0.30030000  0.24840000  0.06890000  1.0
  N  N64  1  0.69970000  0.74840000  0.43110000  1.0
  O  O1  1  0.05510000  0.94338000  0.29654000  1.0
  O  O2  1  0.98110000  0.12290000  0.20636000  1.0
  O  O3  1  0.08130000  0.97793000  0.69136000  1.0
  O  O4  1  0.76160000  0.07090000  0.78021000  1.0
  O  O5  1  0.23750000  0.51802000  0.31694000  1.0
  O  O6  1  0.08260000  0.87829000  0.28776000  1.0
  O  O7  1  0.29640000  0.98861000  0.32335000  1.0
  O  O8  1  0.10150000  0.47494000  0.29480000  1.0
  O  O9  1  0.00570000  0.05768000  0.20404000  1.0
  O  O10  1  0.15570000  0.91883000  0.71617000  1.0
  O  O11  1  0.15190000  0.02766000  0.30147000  1.0
  O  O12  1  0.87680000  0.02110000  0.80263000  1.0
  O  O13  1  0.83220000  0.22261000  0.38440000  1.0
  O  O14  1  0.94110000  0.20495000  0.45280000  1.0
  O  O15  1  0.81100000  0.24790000  0.46170000  1.0
  O  O16  1  0.66190000  0.25432000  0.28430000  1.0
  O  O17  1  0.66980000  0.27670000  0.20710000  1.0
  O  O18  1  0.81770000  0.26250000  0.25430000  1.0
  O  O19  1  0.94490000  0.44338000  0.20346000  1.0
  O  O20  1  0.01890000  0.62290000  0.29364000  1.0
  O  O21  1  0.91870000  0.47793000  0.80864000  1.0
  O  O22  1  0.23840000  0.57090000  0.71979000  1.0
  O  O23  1  0.76250000  0.01802000  0.18306000  1.0
  O  O24  1  0.91740000  0.37829000  0.21224000  1.0
  O  O25  1  0.70360000  0.48861000  0.17665000  1.0
  O  O26  1  0.89850000  0.97494000  0.20520000  1.0
  O  O27  1  0.99430000  0.55768000  0.29596000  1.0
  O  O28  1  0.84430000  0.41883000  0.78383000  1.0
  O  O29  1  0.84810000  0.52766000  0.19853000  1.0
  O  O30  1  0.12320000  0.52110000  0.69737000  1.0
  O  O31  1  0.16780000  0.72261000  0.11560000  1.0
  O  O32  1  0.05890000  0.70495000  0.04720000  1.0
  O  O33  1  0.18900000  0.74790000  0.03830000  1.0
  O  O34  1  0.33810000  0.75432000  0.21570000  1.0
  O  O35  1  0.33020000  0.77670000  0.29290000  1.0
  O  O36  1  0.18230000  0.76250000  0.24570000  1.0
  O  O37  1  0.94490000  0.05662000  0.70346000  1.0
  O  O38  1  0.01890000  0.87710000  0.79364000  1.0
  O  O39  1  0.91870000  0.02207000  0.30864000  1.0
  O  O40  1  0.23840000  0.92910000  0.21979000  1.0
  O  O41  1  0.76250000  0.48198000  0.68306000  1.0
  O  O42  1  0.91740000  0.12171000  0.71224000  1.0
  O  O43  1  0.70360000  0.01139000  0.67665000  1.0
  O  O44  1  0.89850000  0.52506000  0.70520000  1.0
  O  O45  1  0.99430000  0.94232000  0.79596000  1.0
  O  O46  1  0.84430000  0.08117000  0.28383000  1.0
  O  O47  1  0.84810000  0.97234000  0.69853000  1.0
  O  O48  1  0.12320000  0.97890000  0.19737000  1.0
  O  O49  1  0.16780000  0.77739000  0.61560000  1.0
  O  O50  1  0.05890000  0.79505000  0.54720000  1.0
  O  O51  1  0.18900000  0.75210000  0.53830000  1.0
  O  O52  1  0.33810000  0.74568000  0.71570000  1.0
  O  O53  1  0.33020000  0.72330000  0.79290000  1.0
  O  O54  1  0.18230000  0.73750000  0.74570000  1.0
  O  O55  1  0.05510000  0.55662000  0.79654000  1.0
  O  O56  1  0.98110000  0.37710000  0.70636000  1.0
  O  O57  1  0.08130000  0.52207000  0.19136000  1.0
  O  O58  1  0.76160000  0.42910000  0.28021000  1.0
  O  O59  1  0.23750000  0.98198000  0.81694000  1.0
  O  O60  1  0.08260000  0.62171000  0.78776000  1.0
  O  O61  1  0.29640000  0.51139000  0.82335000  1.0
  O  O62  1  0.10150000  0.02506000  0.79480000  1.0
  O  O63  1  0.00570000  0.44232000  0.70404000  1.0
  O  O64  1  0.15570000  0.58117000  0.21617000  1.0
  O  O65  1  0.15190000  0.47234000  0.80147000  1.0
  O  O66  1  0.87680000  0.47890000  0.30263000  1.0
  O  O67  1  0.83220000  0.27739000  0.88440000  1.0
  O  O68  1  0.94110000  0.29505000  0.95280000  1.0
  O  O69  1  0.81100000  0.25210000  0.96170000  1.0
  O  O70  1  0.66190000  0.24568000  0.78430000  1.0
  O  O71  1  0.66980000  0.22330000  0.70710000  1.0
  O  O72  1  0.81770000  0.23750000  0.75430000  1.0
  O  O73  1  0.60870000  0.75495000  0.94390000  1.0
  O  O74  1  0.76980000  0.73010000  0.95920000  1.0
  O  O75  1  0.73030000  0.76720000  0.89080000  1.0
  O  O76  1  0.39130000  0.25495000  0.55610000  1.0
  O  O77  1  0.23020000  0.23010000  0.54080000  1.0
  O  O78  1  0.26970000  0.26720000  0.60920000  1.0
  O  O79  1  0.39130000  0.24505000  0.05610000  1.0
  O  O80  1  0.23020000  0.26990000  0.04080000  1.0
  O  O81  1  0.26970000  0.23280000  0.10920000  1.0
  O  O82  1  0.60870000  0.74505000  0.44390000  1.0
  O  O83  1  0.76980000  0.76990000  0.45920000  1.0
  O  O84  1  0.73030000  0.73280000  0.39080000  1.0
