# DDEC6 charges by PACMAN v1.1 (https://github.com/mtap-research/PACMAN-charge/)
data_tz9b00468_si_001_FSR_pacman
_symmetry_space_group_name_H-M   'P 1'
_cell_length_a   33.01400000
_cell_length_b   33.01400000
_cell_length_c   22.91100000
_cell_angle_alpha   90.00000000
_cell_angle_beta   90.00000000
_cell_angle_gamma   90.00000000
_symmetry_Int_Tables_number   1
_chemical_formula_structural   Cu2H8C17O8
_chemical_formula_sum   'Cu48 H192 C408 O192'
_cell_volume   24971.25325456
_cell_formula_units_Z   24
loop_
 _symmetry_equiv_pos_site_id
 _symmetry_equiv_pos_as_xyz
  1  'x, y, z'
loop_
 _atom_site_type_symbol
 _atom_site_label
 _atom_site_symmetry_multiplicity
 _atom_site_fract_x
 _atom_site_fract_y
 _atom_site_fract_z
 _atom_site_occupancy
 _atom_site_charge
Cu  Cu1  1  0.00000000  0.17014000  0.24981000  1.0 0.8279299597
Cu  Cu2  1  0.00000000  0.22730000  0.16905000  1.0 0.8519929558
Cu  Cu3  1  0.00000000  0.82986000  0.24981000  1.0 0.8279299597
Cu  Cu4  1  0.00000000  0.77270000  0.16905000  1.0 0.8519929558
Cu  Cu5  1  0.17014000  0.00000000  0.24981000  1.0 0.8279299597
Cu  Cu6  1  0.22730000  0.00000000  0.16905000  1.0 0.8519929558
Cu  Cu7  1  0.82986000  0.00000000  0.24981000  1.0 0.8279299597
Cu  Cu8  1  0.77270000  0.00000000  0.16905000  1.0 0.8519929558
Cu  Cu9  1  0.00000000  0.82986000  0.75019000  1.0 0.8279299597
Cu  Cu10  1  0.00000000  0.77270000  0.83095000  1.0 0.8519929558
Cu  Cu11  1  0.00000000  0.17014000  0.75019000  1.0 0.8279299597
Cu  Cu12  1  0.00000000  0.22730000  0.83095000  1.0 0.8519929558
Cu  Cu13  1  0.17014000  0.00000000  0.75019000  1.0 0.8279299597
Cu  Cu14  1  0.22730000  0.00000000  0.83095000  1.0 0.8519929558
Cu  Cu15  1  0.82986000  0.00000000  0.75019000  1.0 0.8279299597
Cu  Cu16  1  0.77270000  0.00000000  0.83095000  1.0 0.8519929558
Cu  Cu17  1  0.22978000  0.22978000  0.50000000  1.0 0.8279299597
Cu  Cu18  1  0.17320000  0.17320000  0.50000000  1.0 0.8849148016
Cu  Cu19  1  0.77022000  0.77022000  0.50000000  1.0 0.8279299597
Cu  Cu20  1  0.82680000  0.82680000  0.50000000  1.0 0.8854927878
Cu  Cu21  1  0.22978000  0.77022000  0.50000000  1.0 0.8279299597
Cu  Cu22  1  0.17320000  0.82680000  0.50000000  1.0 0.8849148016
Cu  Cu23  1  0.77022000  0.22978000  0.50000000  1.0 0.8279299597
Cu  Cu24  1  0.82680000  0.17320000  0.50000000  1.0 0.8849148016
Cu  Cu25  1  0.33849000  0.33849000  0.16808000  1.0 0.8519929558
Cu  Cu26  1  0.37929000  0.37929000  0.24795000  1.0 0.8519929558
Cu  Cu27  1  0.66151000  0.66151000  0.16808000  1.0 0.8519929558
Cu  Cu28  1  0.62071000  0.62071000  0.24795000  1.0 0.8519929558
Cu  Cu29  1  0.33849000  0.66151000  0.16808000  1.0 0.8519929558
Cu  Cu30  1  0.37929000  0.62071000  0.24795000  1.0 0.8519929558
Cu  Cu31  1  0.66151000  0.33849000  0.16808000  1.0 0.8519929558
Cu  Cu32  1  0.62071000  0.37929000  0.24795000  1.0 0.8519929558
Cu  Cu33  1  0.33849000  0.66151000  0.83192000  1.0 0.8519929558
Cu  Cu34  1  0.37929000  0.62071000  0.75205000  1.0 0.8519929558
Cu  Cu35  1  0.66151000  0.33849000  0.83192000  1.0 0.8519929558
Cu  Cu36  1  0.62071000  0.37929000  0.75205000  1.0 0.8519929558
Cu  Cu37  1  0.33849000  0.33849000  0.83192000  1.0 0.8519929558
Cu  Cu38  1  0.37929000  0.37929000  0.75205000  1.0 0.8519929558
Cu  Cu39  1  0.66151000  0.66151000  0.83192000  1.0 0.8519929558
Cu  Cu40  1  0.62071000  0.62071000  0.75205000  1.0 0.8519929558
Cu  Cu41  1  0.25931000  0.50000000  0.50000000  1.0 0.8585547964
Cu  Cu42  1  0.17952000  0.50000000  0.50000000  1.0 0.8585547964
Cu  Cu43  1  0.74069000  0.50000000  0.50000000  1.0 0.8585547964
Cu  Cu44  1  0.82048000  0.50000000  0.50000000  1.0 0.8585547964
Cu  Cu45  1  0.50000000  0.74069000  0.50000000  1.0 0.8585547964
Cu  Cu46  1  0.50000000  0.82048000  0.50000000  1.0 0.8585547964
Cu  Cu47  1  0.50000000  0.25931000  0.50000000  1.0 0.8585547964
Cu  Cu48  1  0.50000000  0.17952000  0.50000000  1.0 0.8585547964
H  H1  1  0.09800000  0.21310000  0.35840000  1.0 0.1417181421
H  H2  1  0.17230000  0.31200000  0.36790000  1.0 0.1322956647
H  H3  1  0.08550000  0.30700000  0.24550000  1.0 0.1322956647
H  H4  1  0.28010000  0.41700000  0.35870000  1.0 0.1417181421
H  H5  1  0.15800000  0.40920000  0.37100000  1.0 0.1417181421
H  H6  1  0.21900000  0.34730000  0.24490000  1.0 0.1322956647
H  H7  1  0.11930000  0.37780000  0.29570000  1.0 0.1322956647
H  H8  1  0.13990000  0.36050000  0.23870000  1.0 0.1322956647
H  H9  1  0.90140000  0.18610000  0.05900000  1.0 0.1322956647
H  H10  1  0.29150000  0.43810000  0.06530000  1.0 0.1322956647
H  H11  1  0.90200000  0.78690000  0.35840000  1.0 0.1417181421
H  H12  1  0.82770000  0.68800000  0.36790000  1.0 0.1322956647
H  H13  1  0.91450000  0.69300000  0.24550000  1.0 0.1322956647
H  H14  1  0.71990000  0.58300000  0.35870000  1.0 0.1417181421
H  H15  1  0.84200000  0.59080000  0.37100000  1.0 0.1417181421
H  H16  1  0.78100000  0.65270000  0.24490000  1.0 0.1322956647
H  H17  1  0.88070000  0.62220000  0.29570000  1.0 0.1322956647
H  H18  1  0.86010000  0.63950000  0.23870000  1.0 0.1322956647
H  H19  1  0.09860000  0.81390000  0.05900000  1.0 0.1322956647
H  H20  1  0.70850000  0.56190000  0.06530000  1.0 0.1322956647
H  H21  1  0.21310000  0.90200000  0.35840000  1.0 0.1417181421
H  H22  1  0.31200000  0.82770000  0.36790000  1.0 0.1322956647
H  H23  1  0.30700000  0.91450000  0.24550000  1.0 0.1322956647
H  H24  1  0.41700000  0.71990000  0.35870000  1.0 0.1417181421
H  H25  1  0.40920000  0.84200000  0.37100000  1.0 0.1322956647
H  H26  1  0.34730000  0.78100000  0.24490000  1.0 0.1322956647
H  H27  1  0.37780000  0.88070000  0.29570000  1.0 0.1322956647
H  H28  1  0.36050000  0.86010000  0.23870000  1.0 0.1322956647
H  H29  1  0.18610000  0.09860000  0.05900000  1.0 0.1322956647
H  H30  1  0.43810000  0.70850000  0.06530000  1.0 0.1322956647
H  H31  1  0.78690000  0.09800000  0.35840000  1.0 0.1417181421
H  H32  1  0.68800000  0.17230000  0.36790000  1.0 0.1322956647
H  H33  1  0.69300000  0.08550000  0.24550000  1.0 0.1322956647
H  H34  1  0.58300000  0.28010000  0.35870000  1.0 0.1417181421
H  H35  1  0.59080000  0.15800000  0.37100000  1.0 0.1417181421
H  H36  1  0.65270000  0.21900000  0.24490000  1.0 0.1322956647
H  H37  1  0.62220000  0.11930000  0.29570000  1.0 0.1322956647
H  H38  1  0.63950000  0.13990000  0.23870000  1.0 0.1322956647
H  H39  1  0.81390000  0.90140000  0.05900000  1.0 0.1322956647
H  H40  1  0.56190000  0.29150000  0.06530000  1.0 0.1322956647
H  H41  1  0.09800000  0.78690000  0.64160000  1.0 0.1417181421
H  H42  1  0.17230000  0.68800000  0.63210000  1.0 0.1322956647
H  H43  1  0.08550000  0.69300000  0.75450000  1.0 0.1322956647
H  H44  1  0.28010000  0.58300000  0.64130000  1.0 0.1417181421
H  H45  1  0.15800000  0.59080000  0.62900000  1.0 0.1417181421
H  H46  1  0.21900000  0.65270000  0.75510000  1.0 0.1322956647
H  H47  1  0.11930000  0.62220000  0.70430000  1.0 0.1322956647
H  H48  1  0.13990000  0.63950000  0.76130000  1.0 0.1322956647
H  H49  1  0.90140000  0.81390000  0.94100000  1.0 0.1322956647
H  H50  1  0.29150000  0.56190000  0.93470000  1.0 0.1322956647
H  H51  1  0.90200000  0.21310000  0.64160000  1.0 0.1417181421
H  H52  1  0.82770000  0.31200000  0.63210000  1.0 0.1322956647
H  H53  1  0.91450000  0.30700000  0.75450000  1.0 0.1322956647
H  H54  1  0.71990000  0.41700000  0.64130000  1.0 0.1417181421
H  H55  1  0.84200000  0.40920000  0.62900000  1.0 0.1322956647
H  H56  1  0.78100000  0.34730000  0.75510000  1.0 0.1322956647
H  H57  1  0.88070000  0.37780000  0.70430000  1.0 0.1322956647
H  H58  1  0.86010000  0.36050000  0.76130000  1.0 0.1322956647
H  H59  1  0.09860000  0.18610000  0.94100000  1.0 0.1322956647
H  H60  1  0.70850000  0.43810000  0.93470000  1.0 0.1322956647
H  H61  1  0.21310000  0.09800000  0.64160000  1.0 0.1417181421
H  H62  1  0.31200000  0.17230000  0.63210000  1.0 0.1322956647
H  H63  1  0.30700000  0.08550000  0.75450000  1.0 0.1322956647
H  H64  1  0.41700000  0.28010000  0.64130000  1.0 0.1417181421
H  H65  1  0.40920000  0.15800000  0.62900000  1.0 0.1417181421
H  H66  1  0.34730000  0.21900000  0.75510000  1.0 0.1322956647
H  H67  1  0.37780000  0.11930000  0.70430000  1.0 0.1322956647
H  H68  1  0.36050000  0.13990000  0.76130000  1.0 0.1322956647
H  H69  1  0.18610000  0.90140000  0.94100000  1.0 0.1322956647
H  H70  1  0.43810000  0.29150000  0.93470000  1.0 0.1322956647
H  H71  1  0.78690000  0.90200000  0.64160000  1.0 0.1417181421
H  H72  1  0.68800000  0.82770000  0.63210000  1.0 0.1322956647
H  H73  1  0.69300000  0.91450000  0.75450000  1.0 0.1322956647
H  H74  1  0.58300000  0.71990000  0.64130000  1.0 0.1417181421
H  H75  1  0.59080000  0.84200000  0.62900000  1.0 0.1417181421
H  H76  1  0.65270000  0.78100000  0.75510000  1.0 0.1322956647
H  H77  1  0.62220000  0.88070000  0.70430000  1.0 0.1322956647
H  H78  1  0.63950000  0.86010000  0.76130000  1.0 0.1322956647
H  H79  1  0.81390000  0.09860000  0.94100000  1.0 0.1322956647
H  H80  1  0.56190000  0.70850000  0.93470000  1.0 0.1322956647
H  H81  1  0.90200000  0.78690000  0.64160000  1.0 0.1417181421
H  H82  1  0.82770000  0.68800000  0.63210000  1.0 0.1322956647
H  H83  1  0.91450000  0.69300000  0.75450000  1.0 0.1322956647
H  H84  1  0.71990000  0.58300000  0.64130000  1.0 0.1417181421
H  H85  1  0.84200000  0.59080000  0.62900000  1.0 0.1417181421
H  H86  1  0.78100000  0.65270000  0.75510000  1.0 0.1322956647
H  H87  1  0.88070000  0.62220000  0.70430000  1.0 0.1322956647
H  H88  1  0.86010000  0.63950000  0.76130000  1.0 0.1322956647
H  H89  1  0.09860000  0.81390000  0.94100000  1.0 0.1322956647
H  H90  1  0.70850000  0.56190000  0.93470000  1.0 0.1322956647
H  H91  1  0.09800000  0.21310000  0.64160000  1.0 0.1417181421
H  H92  1  0.17230000  0.31200000  0.63210000  1.0 0.1322956647
H  H93  1  0.08550000  0.30700000  0.75450000  1.0 0.1322956647
H  H94  1  0.28010000  0.41700000  0.64130000  1.0 0.1417181421
H  H95  1  0.15800000  0.40920000  0.62900000  1.0 0.1417181421
H  H96  1  0.21900000  0.34730000  0.75510000  1.0 0.1322956647
H  H97  1  0.11930000  0.37780000  0.70430000  1.0 0.1322956647
H  H98  1  0.13990000  0.36050000  0.76130000  1.0 0.1322956647
H  H99  1  0.90140000  0.18610000  0.94100000  1.0 0.1322956647
H  H100  1  0.29150000  0.43810000  0.93470000  1.0 0.1322956647
H  H101  1  0.78690000  0.09800000  0.64160000  1.0 0.1417181421
H  H102  1  0.68800000  0.17230000  0.63210000  1.0 0.1322956647
H  H103  1  0.69300000  0.08550000  0.75450000  1.0 0.1322956647
H  H104  1  0.58300000  0.28010000  0.64130000  1.0 0.1417181421
H  H105  1  0.59080000  0.15800000  0.62900000  1.0 0.1417181421
H  H106  1  0.65270000  0.21900000  0.75510000  1.0 0.1322956647
H  H107  1  0.62220000  0.11930000  0.70430000  1.0 0.1322956647
H  H108  1  0.63950000  0.13990000  0.76130000  1.0 0.1322956647
H  H109  1  0.81390000  0.90140000  0.94100000  1.0 0.1322956647
H  H110  1  0.56190000  0.29150000  0.93470000  1.0 0.1322956647
H  H111  1  0.21310000  0.90200000  0.64160000  1.0 0.1417181421
H  H112  1  0.31200000  0.82770000  0.63210000  1.0 0.1322956647
H  H113  1  0.30700000  0.91450000  0.75450000  1.0 0.1322956647
H  H114  1  0.41700000  0.71990000  0.64130000  1.0 0.1417181421
H  H115  1  0.40920000  0.84200000  0.62900000  1.0 0.1322956647
H  H116  1  0.34730000  0.78100000  0.75510000  1.0 0.1322956647
H  H117  1  0.37780000  0.88070000  0.70430000  1.0 0.1322956647
H  H118  1  0.36050000  0.86010000  0.76130000  1.0 0.1322956647
H  H119  1  0.18610000  0.09860000  0.94100000  1.0 0.1322956647
H  H120  1  0.43810000  0.70850000  0.93470000  1.0 0.1322956647
H  H121  1  0.90200000  0.21310000  0.35840000  1.0 0.1417181421
H  H122  1  0.82770000  0.31200000  0.36790000  1.0 0.1322956647
H  H123  1  0.91450000  0.30700000  0.24550000  1.0 0.1322956647
H  H124  1  0.71990000  0.41700000  0.35870000  1.0 0.1417181421
H  H125  1  0.84200000  0.40920000  0.37100000  1.0 0.1322956647
H  H126  1  0.78100000  0.34730000  0.24490000  1.0 0.1322956647
H  H127  1  0.88070000  0.37780000  0.29570000  1.0 0.1322956647
H  H128  1  0.86010000  0.36050000  0.23870000  1.0 0.1322956647
H  H129  1  0.09860000  0.18610000  0.05900000  1.0 0.1322956647
H  H130  1  0.70850000  0.43810000  0.06530000  1.0 0.1322956647
H  H131  1  0.09800000  0.78690000  0.35840000  1.0 0.1417181421
H  H132  1  0.17230000  0.68800000  0.36790000  1.0 0.1322956647
H  H133  1  0.08550000  0.69300000  0.24550000  1.0 0.1322956647
H  H134  1  0.28010000  0.58300000  0.35870000  1.0 0.1417181421
H  H135  1  0.15800000  0.59080000  0.37100000  1.0 0.1417181421
H  H136  1  0.21900000  0.65270000  0.24490000  1.0 0.1322956647
H  H137  1  0.11930000  0.62220000  0.29570000  1.0 0.1322956647
H  H138  1  0.13990000  0.63950000  0.23870000  1.0 0.1322956647
H  H139  1  0.90140000  0.81390000  0.05900000  1.0 0.1322956647
H  H140  1  0.29150000  0.56190000  0.06530000  1.0 0.1322956647
H  H141  1  0.78690000  0.90200000  0.35840000  1.0 0.1417181421
H  H142  1  0.68800000  0.82770000  0.36790000  1.0 0.1322956647
H  H143  1  0.69300000  0.91450000  0.24550000  1.0 0.1322956647
H  H144  1  0.58300000  0.71990000  0.35870000  1.0 0.1417181421
H  H145  1  0.59080000  0.84200000  0.37100000  1.0 0.1417181421
H  H146  1  0.65270000  0.78100000  0.24490000  1.0 0.1322956647
H  H147  1  0.62220000  0.88070000  0.29570000  1.0 0.1322956647
H  H148  1  0.63950000  0.86010000  0.23870000  1.0 0.1322956647
H  H149  1  0.81390000  0.09860000  0.05900000  1.0 0.1322956647
H  H150  1  0.56190000  0.70850000  0.06530000  1.0 0.1322956647
H  H151  1  0.21310000  0.09800000  0.35840000  1.0 0.1417181421
H  H152  1  0.31200000  0.17230000  0.36790000  1.0 0.1322956647
H  H153  1  0.30700000  0.08550000  0.24550000  1.0 0.1322956647
H  H154  1  0.41700000  0.28010000  0.35870000  1.0 0.1417181421
H  H155  1  0.40920000  0.15800000  0.37100000  1.0 0.1417181421
H  H156  1  0.34730000  0.21900000  0.24490000  1.0 0.1322956647
H  H157  1  0.37780000  0.11930000  0.29570000  1.0 0.1322956647
H  H158  1  0.36050000  0.13990000  0.23870000  1.0 0.1322956647
H  H159  1  0.18610000  0.90140000  0.05900000  1.0 0.1322956647
H  H160  1  0.43810000  0.29150000  0.06530000  1.0 0.1322956647
H  H161  1  0.90480000  0.09520000  0.18240000  1.0 0.1417181421
H  H162  1  0.09520000  0.90480000  0.18240000  1.0 0.1417181421
H  H163  1  0.09520000  0.09520000  0.18240000  1.0 0.1417181421
H  H164  1  0.90480000  0.90480000  0.18240000  1.0 0.1417181421
H  H165  1  0.90480000  0.90480000  0.81760000  1.0 0.1417181421
H  H166  1  0.09520000  0.09520000  0.81760000  1.0 0.1417181421
H  H167  1  0.09520000  0.90480000  0.81760000  1.0 0.1417181421
H  H168  1  0.90480000  0.09520000  0.81760000  1.0 0.1417181421
H  H169  1  0.80480000  0.16140000  0.00000000  1.0 0.1322956647
H  H170  1  0.24640000  0.47610000  0.00000000  1.0 0.1322956647
H  H171  1  0.19520000  0.83860000  0.00000000  1.0 0.1322956647
H  H172  1  0.75360000  0.52390000  0.00000000  1.0 0.1322956647
H  H173  1  0.16140000  0.19520000  0.00000000  1.0 0.1322956647
H  H174  1  0.47610000  0.75360000  0.00000000  1.0 0.1322956647
H  H175  1  0.83860000  0.80480000  0.00000000  1.0 0.1322956647
H  H176  1  0.52390000  0.24640000  0.00000000  1.0 0.1322956647
H  H177  1  0.80480000  0.83860000  0.00000000  1.0 0.1322956647
H  H178  1  0.24640000  0.52390000  0.00000000  1.0 0.1322956647
H  H179  1  0.19520000  0.16140000  0.00000000  1.0 0.1322956647
H  H180  1  0.75360000  0.47610000  0.00000000  1.0 0.1322956647
H  H181  1  0.16140000  0.80480000  0.00000000  1.0 0.1322956647
H  H182  1  0.47610000  0.24640000  0.00000000  1.0 0.1322956647
H  H183  1  0.83860000  0.19520000  0.00000000  1.0 0.1322956647
H  H184  1  0.52390000  0.75360000  0.00000000  1.0 0.1322956647
H  H185  1  0.36390000  0.50000000  0.18440000  1.0 0.1417181421
H  H186  1  0.63610000  0.50000000  0.18440000  1.0 0.1417181421
H  H187  1  0.50000000  0.63610000  0.18440000  1.0 0.1417181421
H  H188  1  0.50000000  0.36390000  0.18440000  1.0 0.1417181421
H  H189  1  0.36390000  0.50000000  0.81560000  1.0 0.1417181421
H  H190  1  0.63610000  0.50000000  0.81560000  1.0 0.1417181421
H  H191  1  0.50000000  0.36390000  0.81560000  1.0 0.1417181421
H  H192  1  0.50000000  0.63610000  0.81560000  1.0 0.1417181421
C  C1  1  0.08780000  0.25710000  0.29590000  1.0 -0.0090717431
C  C2  1  0.10680000  0.23810000  0.34410000  1.0 -0.1332348547
C  C3  1  0.14060000  0.25930000  0.37050000  1.0 0.0069630918
C  C4  1  0.15120000  0.29810000  0.34940000  1.0 -0.1828885869
C  C5  1  0.13190000  0.31660000  0.30250000  1.0 0.1417181421
C  C6  1  0.09950000  0.29510000  0.27670000  1.0 -0.1704496534
C  C7  1  0.25600000  0.38220000  0.29680000  1.0 -0.0090717431
C  C8  1  0.25590000  0.40690000  0.34320000  1.0 -0.1080265198
C  C9  1  0.21850000  0.41750000  0.36830000  1.0 0.0045308021
C  C10  1  0.18160000  0.40280000  0.35050000  1.0 -0.161462722
C  C11  1  0.18030000  0.37760000  0.30030000  1.0 0.1322956647
C  C12  1  0.21860000  0.36600000  0.27570000  1.0 -0.1704496534
C  C13  1  0.14090000  0.36020000  0.28150000  1.0 -0.3005427447
C  C14  1  0.05380000  0.23430000  0.26660000  1.0 0.5786928955
C  C15  1  0.16390000  0.23830000  0.41930000  1.0 0.5786928955
C  C16  1  0.29360000  0.37210000  0.26150000  1.0 0.5786928955
C  C17  1  0.21880000  0.44750000  0.42140000  1.0 0.5786928955
C  C18  1  0.94480000  0.16290000  0.15710000  1.0 0.5631178255
C  C19  1  0.90570000  0.14450000  0.12780000  1.0 0.0290699575
C  C20  1  0.88890000  0.16380000  0.07670000  1.0 -0.1980988615
C  C21  1  0.34470000  0.42360000  0.15710000  1.0 0.5667418364
C  C22  1  0.33070000  0.46320000  0.12610000  1.0 0.0220303229
C  C23  1  0.30220000  0.46250000  0.07920000  1.0 -0.2113145011
C  C24  1  0.91220000  0.74290000  0.29590000  1.0 -0.0090717431
C  C25  1  0.89320000  0.76190000  0.34410000  1.0 -0.1332348547
C  C26  1  0.85940000  0.74070000  0.37050000  1.0 0.0069630918
C  C27  1  0.84880000  0.70190000  0.34940000  1.0 -0.1828885869
C  C28  1  0.86810000  0.68340000  0.30250000  1.0 0.1417181421
C  C29  1  0.90050000  0.70490000  0.27670000  1.0 -0.1704496534
C  C30  1  0.74400000  0.61780000  0.29680000  1.0 -0.0090717431
C  C31  1  0.74410000  0.59310000  0.34320000  1.0 -0.1080265198
C  C32  1  0.78150000  0.58250000  0.36830000  1.0 0.0045308021
C  C33  1  0.81840000  0.59720000  0.35050000  1.0 -0.161462722
C  C34  1  0.81970000  0.62240000  0.30030000  1.0 0.1322956647
C  C35  1  0.78140000  0.63400000  0.27570000  1.0 -0.1704496534
C  C36  1  0.85910000  0.63980000  0.28150000  1.0 -0.3005427447
C  C37  1  0.94620000  0.76570000  0.26660000  1.0 0.5786928955
C  C38  1  0.83610000  0.76170000  0.41930000  1.0 0.5786928955
C  C39  1  0.70640000  0.62790000  0.26150000  1.0 0.5786928955
C  C40  1  0.78120000  0.55250000  0.42140000  1.0 0.5786928955
C  C41  1  0.05520000  0.83710000  0.15710000  1.0 0.5631178255
C  C42  1  0.09430000  0.85550000  0.12780000  1.0 0.0290699575
C  C43  1  0.11110000  0.83620000  0.07670000  1.0 -0.1980988615
C  C44  1  0.65530000  0.57640000  0.15710000  1.0 0.5667418364
C  C45  1  0.66930000  0.53680000  0.12610000  1.0 0.0220303229
C  C46  1  0.69780000  0.53750000  0.07920000  1.0 -0.2113145011
C  C47  1  0.25710000  0.91220000  0.29590000  1.0 -0.0090717431
C  C48  1  0.23810000  0.89320000  0.34410000  1.0 -0.1332348547
C  C49  1  0.25930000  0.85940000  0.37050000  1.0 0.0069630918
C  C50  1  0.29810000  0.84880000  0.34940000  1.0 -0.1828885869
C  C51  1  0.31660000  0.86810000  0.30250000  1.0 0.1417181421
C  C52  1  0.29510000  0.90050000  0.27670000  1.0 -0.1704496534
C  C53  1  0.38220000  0.74400000  0.29680000  1.0 -0.0090717431
C  C54  1  0.40690000  0.74410000  0.34320000  1.0 -0.1080265198
C  C55  1  0.41750000  0.78150000  0.36830000  1.0 0.0045308021
C  C56  1  0.40280000  0.81840000  0.35050000  1.0 -0.161462722
C  C57  1  0.37760000  0.81970000  0.30030000  1.0 0.1322956647
C  C58  1  0.36600000  0.78140000  0.27570000  1.0 -0.1704496534
C  C59  1  0.36020000  0.85910000  0.28150000  1.0 -0.3005427447
C  C60  1  0.23430000  0.94620000  0.26660000  1.0 0.5786928955
C  C61  1  0.23830000  0.83610000  0.41930000  1.0 0.5786928955
C  C62  1  0.37210000  0.70640000  0.26150000  1.0 0.5786928955
C  C63  1  0.44750000  0.78120000  0.42140000  1.0 0.5786928955
C  C64  1  0.16290000  0.05520000  0.15710000  1.0 0.5631178255
C  C65  1  0.14450000  0.09430000  0.12780000  1.0 0.0290699575
C  C66  1  0.16380000  0.11110000  0.07670000  1.0 -0.1980988615
C  C67  1  0.42360000  0.65530000  0.15710000  1.0 0.5667418364
C  C68  1  0.46320000  0.66930000  0.12610000  1.0 0.0220303229
C  C69  1  0.46250000  0.69780000  0.07920000  1.0 -0.2113145011
C  C70  1  0.74290000  0.08780000  0.29590000  1.0 -0.0090717431
C  C71  1  0.76190000  0.10680000  0.34410000  1.0 -0.1332348547
C  C72  1  0.74070000  0.14060000  0.37050000  1.0 0.0069630918
C  C73  1  0.70190000  0.15120000  0.34940000  1.0 -0.1828885869
C  C74  1  0.68340000  0.13190000  0.30250000  1.0 0.1462229176
C  C75  1  0.70490000  0.09950000  0.27670000  1.0 -0.1704496534
C  C76  1  0.61780000  0.25600000  0.29680000  1.0 -0.0090717431
C  C77  1  0.59310000  0.25590000  0.34320000  1.0 -0.1080265198
C  C78  1  0.58250000  0.21850000  0.36830000  1.0 0.0045308021
C  C79  1  0.59720000  0.18160000  0.35050000  1.0 -0.161462722
C  C80  1  0.62240000  0.18030000  0.30030000  1.0 0.1322956647
C  C81  1  0.63400000  0.21860000  0.27570000  1.0 -0.1704496534
C  C82  1  0.63980000  0.14090000  0.28150000  1.0 -0.3005427447
C  C83  1  0.76570000  0.05380000  0.26660000  1.0 0.5786928955
C  C84  1  0.76170000  0.16390000  0.41930000  1.0 0.5786928955
C  C85  1  0.62790000  0.29360000  0.26150000  1.0 0.5786928955
C  C86  1  0.55250000  0.21880000  0.42140000  1.0 0.5786928955
C  C87  1  0.83710000  0.94480000  0.15710000  1.0 0.5631178255
C  C88  1  0.85550000  0.90570000  0.12780000  1.0 0.0290699575
C  C89  1  0.83620000  0.88890000  0.07670000  1.0 -0.1980988615
C  C90  1  0.57640000  0.34470000  0.15710000  1.0 0.5667418364
C  C91  1  0.53680000  0.33070000  0.12610000  1.0 0.0220303229
C  C92  1  0.53750000  0.30220000  0.07920000  1.0 -0.2113145011
C  C93  1  0.08780000  0.74290000  0.70410000  1.0 -0.0090717431
C  C94  1  0.10680000  0.76190000  0.65590000  1.0 -0.1332348547
C  C95  1  0.14060000  0.74070000  0.62950000  1.0 0.0069630918
C  C96  1  0.15120000  0.70190000  0.65060000  1.0 -0.1828885869
C  C97  1  0.13190000  0.68340000  0.69750000  1.0 0.1462229176
C  C98  1  0.09950000  0.70490000  0.72330000  1.0 -0.1704496534
C  C99  1  0.25600000  0.61780000  0.70320000  1.0 -0.0090717431
C  C100  1  0.25590000  0.59310000  0.65680000  1.0 -0.1080265198
C  C101  1  0.21850000  0.58250000  0.63170000  1.0 0.0045308021
C  C102  1  0.18160000  0.59720000  0.64950000  1.0 -0.161462722
C  C103  1  0.18030000  0.62240000  0.69970000  1.0 0.1322956647
C  C104  1  0.21860000  0.63400000  0.72430000  1.0 -0.1704496534
C  C105  1  0.14090000  0.63980000  0.71850000  1.0 -0.3005427447
C  C106  1  0.05380000  0.76570000  0.73340000  1.0 0.5786928955
C  C107  1  0.16390000  0.76170000  0.58070000  1.0 0.5786928955
C  C108  1  0.29360000  0.62790000  0.73850000  1.0 0.5786928955
C  C109  1  0.21880000  0.55250000  0.57860000  1.0 0.5786928955
C  C110  1  0.94480000  0.83710000  0.84290000  1.0 0.5631178255
C  C111  1  0.90570000  0.85550000  0.87220000  1.0 0.0290699575
C  C112  1  0.88890000  0.83620000  0.92330000  1.0 -0.1980988615
C  C113  1  0.34470000  0.57640000  0.84290000  1.0 0.5667418364
C  C114  1  0.33070000  0.53680000  0.87390000  1.0 0.0220303229
C  C115  1  0.30220000  0.53750000  0.92080000  1.0 -0.2113145011
C  C116  1  0.91220000  0.25710000  0.70410000  1.0 -0.0090717431
C  C117  1  0.89320000  0.23810000  0.65590000  1.0 -0.1332348547
C  C118  1  0.85940000  0.25930000  0.62950000  1.0 0.0069630918
C  C119  1  0.84880000  0.29810000  0.65060000  1.0 -0.1828885869
C  C120  1  0.86810000  0.31660000  0.69750000  1.0 0.1417181421
C  C121  1  0.90050000  0.29510000  0.72330000  1.0 -0.1704496534
C  C122  1  0.74400000  0.38220000  0.70320000  1.0 -0.0090717431
C  C123  1  0.74410000  0.40690000  0.65680000  1.0 -0.1080265198
C  C124  1  0.78150000  0.41750000  0.63170000  1.0 0.0045308021
C  C125  1  0.81840000  0.40280000  0.64950000  1.0 -0.161462722
C  C126  1  0.81970000  0.37760000  0.69970000  1.0 0.1322956647
C  C127  1  0.78140000  0.36600000  0.72430000  1.0 -0.1704496534
C  C128  1  0.85910000  0.36020000  0.71850000  1.0 -0.3005427447
C  C129  1  0.94620000  0.23430000  0.73340000  1.0 0.5786928955
C  C130  1  0.83610000  0.23830000  0.58070000  1.0 0.5786928955
C  C131  1  0.70640000  0.37210000  0.73850000  1.0 0.5786928955
C  C132  1  0.78120000  0.44750000  0.57860000  1.0 0.5786928955
C  C133  1  0.05520000  0.16290000  0.84290000  1.0 0.5631178255
C  C134  1  0.09430000  0.14450000  0.87220000  1.0 0.0290699575
C  C135  1  0.11110000  0.16380000  0.92330000  1.0 -0.1980988615
C  C136  1  0.65530000  0.42360000  0.84290000  1.0 0.5667418364
C  C137  1  0.66930000  0.46320000  0.87390000  1.0 0.0220303229
C  C138  1  0.69780000  0.46250000  0.92080000  1.0 -0.2113145011
C  C139  1  0.25710000  0.08780000  0.70410000  1.0 -0.0090717431
C  C140  1  0.23810000  0.10680000  0.65590000  1.0 -0.1332348547
C  C141  1  0.25930000  0.14060000  0.62950000  1.0 0.0069630918
C  C142  1  0.29810000  0.15120000  0.65060000  1.0 -0.1828885869
C  C143  1  0.31660000  0.13190000  0.69750000  1.0 0.1417181421
C  C144  1  0.29510000  0.09950000  0.72330000  1.0 -0.1704496534
C  C145  1  0.38220000  0.25600000  0.70320000  1.0 -0.0090717431
C  C146  1  0.40690000  0.25590000  0.65680000  1.0 -0.1080265198
C  C147  1  0.41750000  0.21850000  0.63170000  1.0 0.0045308021
C  C148  1  0.40280000  0.18160000  0.64950000  1.0 -0.161462722
C  C149  1  0.37760000  0.18030000  0.69970000  1.0 0.1322956647
C  C150  1  0.36600000  0.21860000  0.72430000  1.0 -0.1704496534
C  C151  1  0.36020000  0.14090000  0.71850000  1.0 -0.3005427447
C  C152  1  0.23430000  0.05380000  0.73340000  1.0 0.5786928955
C  C153  1  0.23830000  0.16390000  0.58070000  1.0 0.5786928955
C  C154  1  0.37210000  0.29360000  0.73850000  1.0 0.5786928955
C  C155  1  0.44750000  0.21880000  0.57860000  1.0 0.5786928955
C  C156  1  0.16290000  0.94480000  0.84290000  1.0 0.5631178255
C  C157  1  0.14450000  0.90570000  0.87220000  1.0 0.0290699575
C  C158  1  0.16380000  0.88890000  0.92330000  1.0 -0.1980988615
C  C159  1  0.42360000  0.34470000  0.84290000  1.0 0.5667418364
C  C160  1  0.46320000  0.33070000  0.87390000  1.0 0.0220303229
C  C161  1  0.46250000  0.30220000  0.92080000  1.0 -0.2113145011
C  C162  1  0.74290000  0.91220000  0.70410000  1.0 -0.0090717431
C  C163  1  0.76190000  0.89320000  0.65590000  1.0 -0.1332348547
C  C164  1  0.74070000  0.85940000  0.62950000  1.0 0.0069630918
C  C165  1  0.70190000  0.84880000  0.65060000  1.0 -0.1828885869
C  C166  1  0.68340000  0.86810000  0.69750000  1.0 0.1417181421
C  C167  1  0.70490000  0.90050000  0.72330000  1.0 -0.1704496534
C  C168  1  0.61780000  0.74400000  0.70320000  1.0 -0.0090717431
C  C169  1  0.59310000  0.74410000  0.65680000  1.0 -0.1080265198
C  C170  1  0.58250000  0.78150000  0.63170000  1.0 0.0045308021
C  C171  1  0.59720000  0.81840000  0.64950000  1.0 -0.161462722
C  C172  1  0.62240000  0.81970000  0.69970000  1.0 0.1322956647
C  C173  1  0.63400000  0.78140000  0.72430000  1.0 -0.1704496534
C  C174  1  0.63980000  0.85910000  0.71850000  1.0 -0.3005427447
C  C175  1  0.76570000  0.94620000  0.73340000  1.0 0.5786928955
C  C176  1  0.76170000  0.83610000  0.58070000  1.0 0.5786928955
C  C177  1  0.62790000  0.70640000  0.73850000  1.0 0.5786928955
C  C178  1  0.55250000  0.78120000  0.57860000  1.0 0.5786928955
C  C179  1  0.83710000  0.05520000  0.84290000  1.0 0.5631178255
C  C180  1  0.85550000  0.09430000  0.87220000  1.0 0.0290699575
C  C181  1  0.83620000  0.11110000  0.92330000  1.0 -0.1980988615
C  C182  1  0.57640000  0.65530000  0.84290000  1.0 0.5667418364
C  C183  1  0.53680000  0.66930000  0.87390000  1.0 0.0220303229
C  C184  1  0.53750000  0.69780000  0.92080000  1.0 -0.2113145011
C  C185  1  0.91220000  0.74290000  0.70410000  1.0 -0.0090717431
C  C186  1  0.89320000  0.76190000  0.65590000  1.0 -0.1332348547
C  C187  1  0.85940000  0.74070000  0.62950000  1.0 0.0069630918
C  C188  1  0.84880000  0.70190000  0.65060000  1.0 -0.1828885869
C  C189  1  0.86810000  0.68340000  0.69750000  1.0 0.1417181421
C  C190  1  0.90050000  0.70490000  0.72330000  1.0 -0.1704496534
C  C191  1  0.74400000  0.61780000  0.70320000  1.0 -0.0090717431
C  C192  1  0.74410000  0.59310000  0.65680000  1.0 -0.1080265198
C  C193  1  0.78150000  0.58250000  0.63170000  1.0 0.0045308021
C  C194  1  0.81840000  0.59720000  0.64950000  1.0 -0.161462722
C  C195  1  0.81970000  0.62240000  0.69970000  1.0 0.1322956647
C  C196  1  0.78140000  0.63400000  0.72430000  1.0 -0.1704496534
C  C197  1  0.85910000  0.63980000  0.71850000  1.0 -0.3005427447
C  C198  1  0.94620000  0.76570000  0.73340000  1.0 0.5786928955
C  C199  1  0.83610000  0.76170000  0.58070000  1.0 0.5786928955
C  C200  1  0.70640000  0.62790000  0.73850000  1.0 0.5786928955
C  C201  1  0.78120000  0.55250000  0.57860000  1.0 0.5786928955
C  C202  1  0.05520000  0.83710000  0.84290000  1.0 0.5631178255
C  C203  1  0.09430000  0.85550000  0.87220000  1.0 0.0290699575
C  C204  1  0.11110000  0.83620000  0.92330000  1.0 -0.1980988615
C  C205  1  0.65530000  0.57640000  0.84290000  1.0 0.5667418364
C  C206  1  0.66930000  0.53680000  0.87390000  1.0 0.0220303229
C  C207  1  0.69780000  0.53750000  0.92080000  1.0 -0.2113145011
C  C208  1  0.08780000  0.25710000  0.70410000  1.0 -0.0090717431
C  C209  1  0.10680000  0.23810000  0.65590000  1.0 -0.1332348547
C  C210  1  0.14060000  0.25930000  0.62950000  1.0 0.0069630918
C  C211  1  0.15120000  0.29810000  0.65060000  1.0 -0.1828885869
C  C212  1  0.13190000  0.31660000  0.69750000  1.0 0.1417181421
C  C213  1  0.09950000  0.29510000  0.72330000  1.0 -0.1704496534
C  C214  1  0.25600000  0.38220000  0.70320000  1.0 -0.0090717431
C  C215  1  0.25590000  0.40690000  0.65680000  1.0 -0.1080265198
C  C216  1  0.21850000  0.41750000  0.63170000  1.0 0.0045308021
C  C217  1  0.18160000  0.40280000  0.64950000  1.0 -0.161462722
C  C218  1  0.18030000  0.37760000  0.69970000  1.0 0.1322956647
C  C219  1  0.21860000  0.36600000  0.72430000  1.0 -0.1704496534
C  C220  1  0.14090000  0.36020000  0.71850000  1.0 -0.3005427447
C  C221  1  0.05380000  0.23430000  0.73340000  1.0 0.5786928955
C  C222  1  0.16390000  0.23830000  0.58070000  1.0 0.5786928955
C  C223  1  0.29360000  0.37210000  0.73850000  1.0 0.5786928955
C  C224  1  0.21880000  0.44750000  0.57860000  1.0 0.5786928955
C  C225  1  0.94480000  0.16290000  0.84290000  1.0 0.5631178255
C  C226  1  0.90570000  0.14450000  0.87220000  1.0 0.0290699575
C  C227  1  0.88890000  0.16380000  0.92330000  1.0 -0.1980988615
C  C228  1  0.34470000  0.42360000  0.84290000  1.0 0.5667418364
C  C229  1  0.33070000  0.46320000  0.87390000  1.0 0.0220303229
C  C230  1  0.30220000  0.46250000  0.92080000  1.0 -0.2113145011
C  C231  1  0.74290000  0.08780000  0.70410000  1.0 -0.0090717431
C  C232  1  0.76190000  0.10680000  0.65590000  1.0 -0.1332348547
C  C233  1  0.74070000  0.14060000  0.62950000  1.0 0.0069630918
C  C234  1  0.70190000  0.15120000  0.65060000  1.0 -0.1828885869
C  C235  1  0.68340000  0.13190000  0.69750000  1.0 0.1462229176
C  C236  1  0.70490000  0.09950000  0.72330000  1.0 -0.1704496534
C  C237  1  0.61780000  0.25600000  0.70320000  1.0 -0.0090717431
C  C238  1  0.59310000  0.25590000  0.65680000  1.0 -0.1080265198
C  C239  1  0.58250000  0.21850000  0.63170000  1.0 0.0045308021
C  C240  1  0.59720000  0.18160000  0.64950000  1.0 -0.161462722
C  C241  1  0.62240000  0.18030000  0.69970000  1.0 0.1322956647
C  C242  1  0.63400000  0.21860000  0.72430000  1.0 -0.1704496534
C  C243  1  0.63980000  0.14090000  0.71850000  1.0 -0.3005427447
C  C244  1  0.76570000  0.05380000  0.73340000  1.0 0.5786928955
C  C245  1  0.76170000  0.16390000  0.58070000  1.0 0.5786928955
C  C246  1  0.62790000  0.29360000  0.73850000  1.0 0.5786928955
C  C247  1  0.55250000  0.21880000  0.57860000  1.0 0.5786928955
C  C248  1  0.83710000  0.94480000  0.84290000  1.0 0.5631178255
C  C249  1  0.85550000  0.90570000  0.87220000  1.0 0.0290699575
C  C250  1  0.83620000  0.88890000  0.92330000  1.0 -0.1980988615
C  C251  1  0.57640000  0.34470000  0.84290000  1.0 0.5667418364
C  C252  1  0.53680000  0.33070000  0.87390000  1.0 0.0220303229
C  C253  1  0.53750000  0.30220000  0.92080000  1.0 -0.2113145011
C  C254  1  0.25710000  0.91220000  0.70410000  1.0 -0.0090717431
C  C255  1  0.23810000  0.89320000  0.65590000  1.0 -0.1332348547
C  C256  1  0.25930000  0.85940000  0.62950000  1.0 0.0069630918
C  C257  1  0.29810000  0.84880000  0.65060000  1.0 -0.1828885869
C  C258  1  0.31660000  0.86810000  0.69750000  1.0 0.1417181421
C  C259  1  0.29510000  0.90050000  0.72330000  1.0 -0.1704496534
C  C260  1  0.38220000  0.74400000  0.70320000  1.0 -0.0090717431
C  C261  1  0.40690000  0.74410000  0.65680000  1.0 -0.1080265198
C  C262  1  0.41750000  0.78150000  0.63170000  1.0 0.0045308021
C  C263  1  0.40280000  0.81840000  0.64950000  1.0 -0.161462722
C  C264  1  0.37760000  0.81970000  0.69970000  1.0 0.1322956647
C  C265  1  0.36600000  0.78140000  0.72430000  1.0 -0.1704496534
C  C266  1  0.36020000  0.85910000  0.71850000  1.0 -0.3005427447
C  C267  1  0.23430000  0.94620000  0.73340000  1.0 0.5786928955
C  C268  1  0.23830000  0.83610000  0.58070000  1.0 0.5786928955
C  C269  1  0.37210000  0.70640000  0.73850000  1.0 0.5786928955
C  C270  1  0.44750000  0.78120000  0.57860000  1.0 0.5786928955
C  C271  1  0.16290000  0.05520000  0.84290000  1.0 0.5631178255
C  C272  1  0.14450000  0.09430000  0.87220000  1.0 0.0290699575
C  C273  1  0.16380000  0.11110000  0.92330000  1.0 -0.1980988615
C  C274  1  0.42360000  0.65530000  0.84290000  1.0 0.5667418364
C  C275  1  0.46320000  0.66930000  0.87390000  1.0 0.0220303229
C  C276  1  0.46250000  0.69780000  0.92080000  1.0 -0.2113145011
C  C277  1  0.91220000  0.25710000  0.29590000  1.0 -0.0090717431
C  C278  1  0.89320000  0.23810000  0.34410000  1.0 -0.1332348547
C  C279  1  0.85940000  0.25930000  0.37050000  1.0 0.0069630918
C  C280  1  0.84880000  0.29810000  0.34940000  1.0 -0.1828885869
C  C281  1  0.86810000  0.31660000  0.30250000  1.0 0.1417181421
C  C282  1  0.90050000  0.29510000  0.27670000  1.0 -0.1704496534
C  C283  1  0.74400000  0.38220000  0.29680000  1.0 -0.0090717431
C  C284  1  0.74410000  0.40690000  0.34320000  1.0 -0.1080265198
C  C285  1  0.78150000  0.41750000  0.36830000  1.0 0.0045308021
C  C286  1  0.81840000  0.40280000  0.35050000  1.0 -0.161462722
C  C287  1  0.81970000  0.37760000  0.30030000  1.0 0.1322956647
C  C288  1  0.78140000  0.36600000  0.27570000  1.0 -0.1704496534
C  C289  1  0.85910000  0.36020000  0.28150000  1.0 -0.3005427447
C  C290  1  0.94620000  0.23430000  0.26660000  1.0 0.5786928955
C  C291  1  0.83610000  0.23830000  0.41930000  1.0 0.5786928955
C  C292  1  0.70640000  0.37210000  0.26150000  1.0 0.5786928955
C  C293  1  0.78120000  0.44750000  0.42140000  1.0 0.5786928955
C  C294  1  0.05520000  0.16290000  0.15710000  1.0 0.5631178255
C  C295  1  0.09430000  0.14450000  0.12780000  1.0 0.0290699575
C  C296  1  0.11110000  0.16380000  0.07670000  1.0 -0.1980988615
C  C297  1  0.65530000  0.42360000  0.15710000  1.0 0.5667418364
C  C298  1  0.66930000  0.46320000  0.12610000  1.0 0.0220303229
C  C299  1  0.69780000  0.46250000  0.07920000  1.0 -0.2113145011
C  C300  1  0.08780000  0.74290000  0.29590000  1.0 -0.0090717431
C  C301  1  0.10680000  0.76190000  0.34410000  1.0 -0.1332348547
C  C302  1  0.14060000  0.74070000  0.37050000  1.0 0.0069630918
C  C303  1  0.15120000  0.70190000  0.34940000  1.0 -0.1828885869
C  C304  1  0.13190000  0.68340000  0.30250000  1.0 0.1417181421
C  C305  1  0.09950000  0.70490000  0.27670000  1.0 -0.1704496534
C  C306  1  0.25600000  0.61780000  0.29680000  1.0 -0.0090717431
C  C307  1  0.25590000  0.59310000  0.34320000  1.0 -0.1080265198
C  C308  1  0.21850000  0.58250000  0.36830000  1.0 0.0045308021
C  C309  1  0.18160000  0.59720000  0.35050000  1.0 -0.161462722
C  C310  1  0.18030000  0.62240000  0.30030000  1.0 0.1322956647
C  C311  1  0.21860000  0.63400000  0.27570000  1.0 -0.1704496534
C  C312  1  0.14090000  0.63980000  0.28150000  1.0 -0.3005427447
C  C313  1  0.05380000  0.76570000  0.26660000  1.0 0.5786928955
C  C314  1  0.16390000  0.76170000  0.41930000  1.0 0.5786928955
C  C315  1  0.29360000  0.62790000  0.26150000  1.0 0.5786928955
C  C316  1  0.21880000  0.55250000  0.42140000  1.0 0.5786928955
C  C317  1  0.94480000  0.83710000  0.15710000  1.0 0.5631178255
C  C318  1  0.90570000  0.85550000  0.12780000  1.0 0.0290699575
C  C319  1  0.88890000  0.83620000  0.07670000  1.0 -0.1980988615
C  C320  1  0.34470000  0.57640000  0.15710000  1.0 0.5667418364
C  C321  1  0.33070000  0.53680000  0.12610000  1.0 0.0220303229
C  C322  1  0.30220000  0.53750000  0.07920000  1.0 -0.2113145011
C  C323  1  0.74290000  0.91220000  0.29590000  1.0 -0.0090717431
C  C324  1  0.76190000  0.89320000  0.34410000  1.0 -0.1332348547
C  C325  1  0.74070000  0.85940000  0.37050000  1.0 0.0069630918
C  C326  1  0.70190000  0.84880000  0.34940000  1.0 -0.1828885869
C  C327  1  0.68340000  0.86810000  0.30250000  1.0 0.1417181421
C  C328  1  0.70490000  0.90050000  0.27670000  1.0 -0.1704496534
C  C329  1  0.61780000  0.74400000  0.29680000  1.0 -0.0090717431
C  C330  1  0.59310000  0.74410000  0.34320000  1.0 -0.1080265198
C  C331  1  0.58250000  0.78150000  0.36830000  1.0 0.0045308021
C  C332  1  0.59720000  0.81840000  0.35050000  1.0 -0.161462722
C  C333  1  0.62240000  0.81970000  0.30030000  1.0 0.1322956647
C  C334  1  0.63400000  0.78140000  0.27570000  1.0 -0.1704496534
C  C335  1  0.63980000  0.85910000  0.28150000  1.0 -0.3005427447
C  C336  1  0.76570000  0.94620000  0.26660000  1.0 0.5786928955
C  C337  1  0.76170000  0.83610000  0.41930000  1.0 0.5786928955
C  C338  1  0.62790000  0.70640000  0.26150000  1.0 0.5786928955
C  C339  1  0.55250000  0.78120000  0.42140000  1.0 0.5786928955
C  C340  1  0.83710000  0.05520000  0.15710000  1.0 0.5631178255
C  C341  1  0.85550000  0.09430000  0.12780000  1.0 0.0290699575
C  C342  1  0.83620000  0.11110000  0.07670000  1.0 -0.1980988615
C  C343  1  0.57640000  0.65530000  0.15710000  1.0 0.5667418364
C  C344  1  0.53680000  0.66930000  0.12610000  1.0 0.0220303229
C  C345  1  0.53750000  0.69780000  0.07920000  1.0 -0.2113145011
C  C346  1  0.25710000  0.08780000  0.29590000  1.0 -0.0090717431
C  C347  1  0.23810000  0.10680000  0.34410000  1.0 -0.1332348547
C  C348  1  0.25930000  0.14060000  0.37050000  1.0 0.0069630918
C  C349  1  0.29810000  0.15120000  0.34940000  1.0 -0.1828885869
C  C350  1  0.31660000  0.13190000  0.30250000  1.0 0.1417181421
C  C351  1  0.29510000  0.09950000  0.27670000  1.0 -0.1704496534
C  C352  1  0.38220000  0.25600000  0.29680000  1.0 -0.0090717431
C  C353  1  0.40690000  0.25590000  0.34320000  1.0 -0.1080265198
C  C354  1  0.41750000  0.21850000  0.36830000  1.0 0.0045308021
C  C355  1  0.40280000  0.18160000  0.35050000  1.0 -0.161462722
C  C356  1  0.37760000  0.18030000  0.30030000  1.0 0.1322956647
C  C357  1  0.36600000  0.21860000  0.27570000  1.0 -0.1704496534
C  C358  1  0.36020000  0.14090000  0.28150000  1.0 -0.3005427447
C  C359  1  0.23430000  0.05380000  0.26660000  1.0 0.5786928955
C  C360  1  0.23830000  0.16390000  0.41930000  1.0 0.5786928955
C  C361  1  0.37210000  0.29360000  0.26150000  1.0 0.5786928955
C  C362  1  0.44750000  0.21880000  0.42140000  1.0 0.5786928955
C  C363  1  0.16290000  0.94480000  0.15710000  1.0 0.5631178255
C  C364  1  0.14450000  0.90570000  0.12780000  1.0 0.0290699575
C  C365  1  0.16380000  0.88890000  0.07670000  1.0 -0.1980988615
C  C366  1  0.42360000  0.34470000  0.15710000  1.0 0.5667418364
C  C367  1  0.46320000  0.33070000  0.12610000  1.0 0.0220303229
C  C368  1  0.46250000  0.30220000  0.07920000  1.0 -0.2113145011
C  C369  1  0.89130000  0.10870000  0.15200000  1.0 -0.161462722
C  C370  1  0.85280000  0.14720000  0.05500000  1.0 0.1462229176
C  C371  1  0.10870000  0.89130000  0.15200000  1.0 -0.161462722
C  C372  1  0.14720000  0.85280000  0.05500000  1.0 0.1462229176
C  C373  1  0.10870000  0.10870000  0.15200000  1.0 -0.161462722
C  C374  1  0.14720000  0.14720000  0.05500000  1.0 0.1462229176
C  C375  1  0.89130000  0.89130000  0.15200000  1.0 -0.161462722
C  C376  1  0.85280000  0.85280000  0.05500000  1.0 0.1462229176
C  C377  1  0.89130000  0.89130000  0.84800000  1.0 -0.161462722
C  C378  1  0.85280000  0.85280000  0.94500000  1.0 0.1462229176
C  C379  1  0.10870000  0.10870000  0.84800000  1.0 -0.161462722
C  C380  1  0.14720000  0.14720000  0.94500000  1.0 0.1462229176
C  C381  1  0.10870000  0.89130000  0.84800000  1.0 -0.161462722
C  C382  1  0.14720000  0.85280000  0.94500000  1.0 0.1462229176
C  C383  1  0.89130000  0.10870000  0.84800000  1.0 -0.161462722
C  C384  1  0.85280000  0.14720000  0.94500000  1.0 0.1462229176
C  C385  1  0.83390000  0.16610000  0.00000000  1.0 -0.2701774602
C  C386  1  0.16610000  0.83390000  0.00000000  1.0 -0.2701774602
C  C387  1  0.16610000  0.16610000  0.00000000  1.0 -0.2701774602
C  C388  1  0.83390000  0.83390000  0.00000000  1.0 -0.2701774602
C  C389  1  0.34590000  0.50000000  0.15270000  1.0 -0.1704496534
C  C390  1  0.29040000  0.50000000  0.05420000  1.0 0.1609826247
C  C391  1  0.65410000  0.50000000  0.15270000  1.0 -0.1704496534
C  C392  1  0.70960000  0.50000000  0.05420000  1.0 0.1609826247
C  C393  1  0.50000000  0.65410000  0.15270000  1.0 -0.1704496534
C  C394  1  0.50000000  0.70960000  0.05420000  1.0 0.1609826247
C  C395  1  0.50000000  0.34590000  0.15270000  1.0 -0.1704496534
C  C396  1  0.50000000  0.29040000  0.05420000  1.0 0.1609826247
C  C397  1  0.34590000  0.50000000  0.84730000  1.0 -0.1704496534
C  C398  1  0.29040000  0.50000000  0.94580000  1.0 0.1609826247
C  C399  1  0.65410000  0.50000000  0.84730000  1.0 -0.1704496534
C  C400  1  0.70960000  0.50000000  0.94580000  1.0 0.1609826247
C  C401  1  0.50000000  0.34590000  0.84730000  1.0 -0.1704496534
C  C402  1  0.50000000  0.29040000  0.94580000  1.0 0.1609826247
C  C403  1  0.50000000  0.65410000  0.84730000  1.0 -0.1704496534
C  C404  1  0.50000000  0.70960000  0.94580000  1.0 0.1609826247
C  C405  1  0.26370000  0.50000000  0.00000000  1.0 -0.2788947661
C  C406  1  0.73630000  0.50000000  0.00000000  1.0 -0.2788947661
C  C407  1  0.50000000  0.73630000  0.00000000  1.0 -0.2788947661
C  C408  1  0.50000000  0.26370000  0.00000000  1.0 -0.2788947661
O  O1  1  0.04240000  0.20270000  0.28940000  1.0 -0.4702334468
O  O2  1  0.04190000  0.25200000  0.22060000  1.0 -0.5305683031
O  O3  1  0.19520000  0.25590000  0.43790000  1.0 -0.5188770259
O  O4  1  0.14740000  0.20620000  0.44010000  1.0 -0.5305683031
O  O5  1  0.29100000  0.35090000  0.21650000  1.0 -0.5072608282
O  O6  1  0.32550000  0.38530000  0.28530000  1.0 -0.5188770259
O  O7  1  0.18400000  0.45900000  0.43940000  1.0 -0.5305683031
O  O8  1  0.25380000  0.45810000  0.43870000  1.0 -0.5188770259
O  O9  1  0.95740000  0.14590000  0.20040000  1.0 -0.462415005
O  O10  1  0.95720000  0.19520000  0.13040000  1.0 -0.5431138446
O  O11  1  0.33120000  0.39170000  0.13000000  1.0 -0.5452426215
O  O12  1  0.36830000  0.42560000  0.19860000  1.0 -0.4702334468
O  O13  1  0.95760000  0.79730000  0.28940000  1.0 -0.4702334468
O  O14  1  0.95810000  0.74800000  0.22060000  1.0 -0.5305683031
O  O15  1  0.80480000  0.74410000  0.43790000  1.0 -0.5188770259
O  O16  1  0.85260000  0.79380000  0.44010000  1.0 -0.5305683031
O  O17  1  0.70900000  0.64910000  0.21650000  1.0 -0.5072608282
O  O18  1  0.67450000  0.61470000  0.28530000  1.0 -0.5188770259
O  O19  1  0.81600000  0.54100000  0.43940000  1.0 -0.5305683031
O  O20  1  0.74620000  0.54190000  0.43870000  1.0 -0.5188770259
O  O21  1  0.04260000  0.85410000  0.20040000  1.0 -0.4702334468
O  O22  1  0.04280000  0.80480000  0.13040000  1.0 -0.5431138446
O  O23  1  0.66880000  0.60830000  0.13000000  1.0 -0.5452426215
O  O24  1  0.63170000  0.57440000  0.19860000  1.0 -0.4702334468
O  O25  1  0.20270000  0.95760000  0.28940000  1.0 -0.4702334468
O  O26  1  0.25200000  0.95810000  0.22060000  1.0 -0.5305683031
O  O27  1  0.25590000  0.80480000  0.43790000  1.0 -0.5188770259
O  O28  1  0.20620000  0.85260000  0.44010000  1.0 -0.5305683031
O  O29  1  0.35090000  0.70900000  0.21650000  1.0 -0.5072608282
O  O30  1  0.38530000  0.67450000  0.28530000  1.0 -0.5188770259
O  O31  1  0.45900000  0.81600000  0.43940000  1.0 -0.5305683031
O  O32  1  0.45810000  0.74620000  0.43870000  1.0 -0.5188770259
O  O33  1  0.14590000  0.04260000  0.20040000  1.0 -0.4702334468
O  O34  1  0.19520000  0.04280000  0.13040000  1.0 -0.5431138446
O  O35  1  0.39170000  0.66880000  0.13000000  1.0 -0.5452426215
O  O36  1  0.42560000  0.63170000  0.19860000  1.0 -0.4702334468
O  O37  1  0.79730000  0.04240000  0.28940000  1.0 -0.4702334468
O  O38  1  0.74800000  0.04190000  0.22060000  1.0 -0.5305683031
O  O39  1  0.74410000  0.19520000  0.43790000  1.0 -0.5188770259
O  O40  1  0.79380000  0.14740000  0.44010000  1.0 -0.5305683031
O  O41  1  0.64910000  0.29100000  0.21650000  1.0 -0.5072608282
O  O42  1  0.61470000  0.32550000  0.28530000  1.0 -0.5188770259
O  O43  1  0.54100000  0.18400000  0.43940000  1.0 -0.5305683031
O  O44  1  0.54190000  0.25380000  0.43870000  1.0 -0.5188770259
O  O45  1  0.85410000  0.95740000  0.20040000  1.0 -0.462415005
O  O46  1  0.80480000  0.95720000  0.13040000  1.0 -0.5431138446
O  O47  1  0.60830000  0.33120000  0.13000000  1.0 -0.5431138446
O  O48  1  0.57440000  0.36830000  0.19860000  1.0 -0.4702334468
O  O49  1  0.04240000  0.79730000  0.71060000  1.0 -0.4702334468
O  O50  1  0.04190000  0.74800000  0.77940000  1.0 -0.5305683031
O  O51  1  0.19520000  0.74410000  0.56210000  1.0 -0.5188770259
O  O52  1  0.14740000  0.79380000  0.55990000  1.0 -0.5305683031
O  O53  1  0.29100000  0.64910000  0.78350000  1.0 -0.5072608282
O  O54  1  0.32550000  0.61470000  0.71470000  1.0 -0.5188770259
O  O55  1  0.18400000  0.54100000  0.56060000  1.0 -0.5305683031
O  O56  1  0.25380000  0.54190000  0.56130000  1.0 -0.5188770259
O  O57  1  0.95740000  0.85410000  0.79960000  1.0 -0.462415005
O  O58  1  0.95720000  0.80480000  0.86960000  1.0 -0.5431138446
O  O59  1  0.33120000  0.60830000  0.87000000  1.0 -0.5431138446
O  O60  1  0.36830000  0.57440000  0.80140000  1.0 -0.4702334468
O  O61  1  0.95760000  0.20270000  0.71060000  1.0 -0.4702334468
O  O62  1  0.95810000  0.25200000  0.77940000  1.0 -0.5305683031
O  O63  1  0.80480000  0.25590000  0.56210000  1.0 -0.5188770259
O  O64  1  0.85260000  0.20620000  0.55990000  1.0 -0.5305683031
O  O65  1  0.70900000  0.35090000  0.78350000  1.0 -0.5072608282
O  O66  1  0.67450000  0.38530000  0.71470000  1.0 -0.5188770259
O  O67  1  0.81600000  0.45900000  0.56060000  1.0 -0.5305683031
O  O68  1  0.74620000  0.45810000  0.56130000  1.0 -0.5188770259
O  O69  1  0.04260000  0.14590000  0.79960000  1.0 -0.4702334468
O  O70  1  0.04280000  0.19520000  0.86960000  1.0 -0.5431138446
O  O71  1  0.66880000  0.39170000  0.87000000  1.0 -0.5452426215
O  O72  1  0.63170000  0.42560000  0.80140000  1.0 -0.4702334468
O  O73  1  0.20270000  0.04240000  0.71060000  1.0 -0.4702334468
O  O74  1  0.25200000  0.04190000  0.77940000  1.0 -0.5305683031
O  O75  1  0.25590000  0.19520000  0.56210000  1.0 -0.5188770259
O  O76  1  0.20620000  0.14740000  0.55990000  1.0 -0.5305683031
O  O77  1  0.35090000  0.29100000  0.78350000  1.0 -0.5072608282
O  O78  1  0.38530000  0.32550000  0.71470000  1.0 -0.5188770259
O  O79  1  0.45900000  0.18400000  0.56060000  1.0 -0.5305683031
O  O80  1  0.45810000  0.25380000  0.56130000  1.0 -0.5188770259
O  O81  1  0.14590000  0.95740000  0.79960000  1.0 -0.462415005
O  O82  1  0.19520000  0.95720000  0.86960000  1.0 -0.5431138446
O  O83  1  0.39170000  0.33120000  0.87000000  1.0 -0.5452426215
O  O84  1  0.42560000  0.36830000  0.80140000  1.0 -0.4702334468
O  O85  1  0.79730000  0.95760000  0.71060000  1.0 -0.4702334468
O  O86  1  0.74800000  0.95810000  0.77940000  1.0 -0.5305683031
O  O87  1  0.74410000  0.80480000  0.56210000  1.0 -0.5188770259
O  O88  1  0.79380000  0.85260000  0.55990000  1.0 -0.5305683031
O  O89  1  0.64910000  0.70900000  0.78350000  1.0 -0.5072608282
O  O90  1  0.61470000  0.67450000  0.71470000  1.0 -0.5188770259
O  O91  1  0.54100000  0.81600000  0.56060000  1.0 -0.5305683031
O  O92  1  0.54190000  0.74620000  0.56130000  1.0 -0.5188770259
O  O93  1  0.85410000  0.04260000  0.79960000  1.0 -0.4702334468
O  O94  1  0.80480000  0.04280000  0.86960000  1.0 -0.5431138446
O  O95  1  0.60830000  0.66880000  0.87000000  1.0 -0.5452426215
O  O96  1  0.57440000  0.63170000  0.80140000  1.0 -0.4702334468
O  O97  1  0.95760000  0.79730000  0.71060000  1.0 -0.4702334468
O  O98  1  0.95810000  0.74800000  0.77940000  1.0 -0.5305683031
O  O99  1  0.80480000  0.74410000  0.56210000  1.0 -0.5188770259
O  O100  1  0.85260000  0.79380000  0.55990000  1.0 -0.5305683031
O  O101  1  0.70900000  0.64910000  0.78350000  1.0 -0.5072608282
O  O102  1  0.67450000  0.61470000  0.71470000  1.0 -0.5188770259
O  O103  1  0.81600000  0.54100000  0.56060000  1.0 -0.5305683031
O  O104  1  0.74620000  0.54190000  0.56130000  1.0 -0.5188770259
O  O105  1  0.04260000  0.85410000  0.79960000  1.0 -0.4702334468
O  O106  1  0.04280000  0.80480000  0.86960000  1.0 -0.5431138446
O  O107  1  0.66880000  0.60830000  0.87000000  1.0 -0.5452426215
O  O108  1  0.63170000  0.57440000  0.80140000  1.0 -0.4702334468
O  O109  1  0.04240000  0.20270000  0.71060000  1.0 -0.4702334468
O  O110  1  0.04190000  0.25200000  0.77940000  1.0 -0.5305683031
O  O111  1  0.19520000  0.25590000  0.56210000  1.0 -0.5188770259
O  O112  1  0.14740000  0.20620000  0.55990000  1.0 -0.5305683031
O  O113  1  0.29100000  0.35090000  0.78350000  1.0 -0.5072608282
O  O114  1  0.32550000  0.38530000  0.71470000  1.0 -0.5188770259
O  O115  1  0.18400000  0.45900000  0.56060000  1.0 -0.5305683031
O  O116  1  0.25380000  0.45810000  0.56130000  1.0 -0.5188770259
O  O117  1  0.95740000  0.14590000  0.79960000  1.0 -0.462415005
O  O118  1  0.95720000  0.19520000  0.86960000  1.0 -0.5431138446
O  O119  1  0.33120000  0.39170000  0.87000000  1.0 -0.5452426215
O  O120  1  0.36830000  0.42560000  0.80140000  1.0 -0.4702334468
O  O121  1  0.79730000  0.04240000  0.71060000  1.0 -0.4702334468
O  O122  1  0.74800000  0.04190000  0.77940000  1.0 -0.5305683031
O  O123  1  0.74410000  0.19520000  0.56210000  1.0 -0.5188770259
O  O124  1  0.79380000  0.14740000  0.55990000  1.0 -0.5305683031
O  O125  1  0.64910000  0.29100000  0.78350000  1.0 -0.5072608282
O  O126  1  0.61470000  0.32550000  0.71470000  1.0 -0.5188770259
O  O127  1  0.54100000  0.18400000  0.56060000  1.0 -0.5305683031
O  O128  1  0.54190000  0.25380000  0.56130000  1.0 -0.5188770259
O  O129  1  0.85410000  0.95740000  0.79960000  1.0 -0.462415005
O  O130  1  0.80480000  0.95720000  0.86960000  1.0 -0.5431138446
O  O131  1  0.60830000  0.33120000  0.87000000  1.0 -0.5431138446
O  O132  1  0.57440000  0.36830000  0.80140000  1.0 -0.4702334468
O  O133  1  0.20270000  0.95760000  0.71060000  1.0 -0.4702334468
O  O134  1  0.25200000  0.95810000  0.77940000  1.0 -0.5305683031
O  O135  1  0.25590000  0.80480000  0.56210000  1.0 -0.5188770259
O  O136  1  0.20620000  0.85260000  0.55990000  1.0 -0.5305683031
O  O137  1  0.35090000  0.70900000  0.78350000  1.0 -0.5072608282
O  O138  1  0.38530000  0.67450000  0.71470000  1.0 -0.5188770259
O  O139  1  0.45900000  0.81600000  0.56060000  1.0 -0.5305683031
O  O140  1  0.45810000  0.74620000  0.56130000  1.0 -0.5188770259
O  O141  1  0.14590000  0.04260000  0.79960000  1.0 -0.4702334468
O  O142  1  0.19520000  0.04280000  0.86960000  1.0 -0.5431138446
O  O143  1  0.39170000  0.66880000  0.87000000  1.0 -0.5452426215
O  O144  1  0.42560000  0.63170000  0.80140000  1.0 -0.4702334468
O  O145  1  0.95760000  0.20270000  0.28940000  1.0 -0.4702334468
O  O146  1  0.95810000  0.25200000  0.22060000  1.0 -0.5305683031
O  O147  1  0.80480000  0.25590000  0.43790000  1.0 -0.5188770259
O  O148  1  0.85260000  0.20620000  0.44010000  1.0 -0.5305683031
O  O149  1  0.70900000  0.35090000  0.21650000  1.0 -0.5072608282
O  O150  1  0.67450000  0.38530000  0.28530000  1.0 -0.5188770259
O  O151  1  0.81600000  0.45900000  0.43940000  1.0 -0.5305683031
O  O152  1  0.74620000  0.45810000  0.43870000  1.0 -0.5188770259
O  O153  1  0.04260000  0.14590000  0.20040000  1.0 -0.4702334468
O  O154  1  0.04280000  0.19520000  0.13040000  1.0 -0.5431138446
O  O155  1  0.66880000  0.39170000  0.13000000  1.0 -0.5452426215
O  O156  1  0.63170000  0.42560000  0.19860000  1.0 -0.4702334468
O  O157  1  0.04240000  0.79730000  0.28940000  1.0 -0.4702334468
O  O158  1  0.04190000  0.74800000  0.22060000  1.0 -0.5305683031
O  O159  1  0.19520000  0.74410000  0.43790000  1.0 -0.5188770259
O  O160  1  0.14740000  0.79380000  0.44010000  1.0 -0.5305683031
O  O161  1  0.29100000  0.64910000  0.21650000  1.0 -0.5072608282
O  O162  1  0.32550000  0.61470000  0.28530000  1.0 -0.5188770259
O  O163  1  0.18400000  0.54100000  0.43940000  1.0 -0.5305683031
O  O164  1  0.25380000  0.54190000  0.43870000  1.0 -0.5188770259
O  O165  1  0.95740000  0.85410000  0.20040000  1.0 -0.462415005
O  O166  1  0.95720000  0.80480000  0.13040000  1.0 -0.5431138446
O  O167  1  0.33120000  0.60830000  0.13000000  1.0 -0.5431138446
O  O168  1  0.36830000  0.57440000  0.19860000  1.0 -0.4702334468
O  O169  1  0.79730000  0.95760000  0.28940000  1.0 -0.4702334468
O  O170  1  0.74800000  0.95810000  0.22060000  1.0 -0.5305683031
O  O171  1  0.74410000  0.80480000  0.43790000  1.0 -0.5188770259
O  O172  1  0.79380000  0.85260000  0.44010000  1.0 -0.5305683031
O  O173  1  0.64910000  0.70900000  0.21650000  1.0 -0.5072608282
O  O174  1  0.61470000  0.67450000  0.28530000  1.0 -0.5188770259
O  O175  1  0.54100000  0.81600000  0.43940000  1.0 -0.5305683031
O  O176  1  0.54190000  0.74620000  0.43870000  1.0 -0.5188770259
O  O177  1  0.85410000  0.04260000  0.20040000  1.0 -0.4702334468
O  O178  1  0.80480000  0.04280000  0.13040000  1.0 -0.5431138446
O  O179  1  0.60830000  0.66880000  0.13000000  1.0 -0.5452426215
O  O180  1  0.57440000  0.63170000  0.19860000  1.0 -0.4702334468
O  O181  1  0.20270000  0.04240000  0.28940000  1.0 -0.4702334468
O  O182  1  0.25200000  0.04190000  0.22060000  1.0 -0.5305683031
O  O183  1  0.25590000  0.19520000  0.43790000  1.0 -0.5188770259
O  O184  1  0.20620000  0.14740000  0.44010000  1.0 -0.5305683031
O  O185  1  0.35090000  0.29100000  0.21650000  1.0 -0.5072608282
O  O186  1  0.38530000  0.32550000  0.28530000  1.0 -0.5188770259
O  O187  1  0.45900000  0.18400000  0.43940000  1.0 -0.5305683031
O  O188  1  0.45810000  0.25380000  0.43870000  1.0 -0.5188770259
O  O189  1  0.14590000  0.95740000  0.20040000  1.0 -0.462415005
O  O190  1  0.19520000  0.95720000  0.13040000  1.0 -0.5431138446
O  O191  1  0.39170000  0.33120000  0.13000000  1.0 -0.5452426215
O  O192  1  0.42560000  0.36830000  0.19860000  1.0 -0.4702334468
